
     RDKit          3D

 36 40  0  0  0  0  0  0  0  0999 V2000
  -29.4611   23.1556  -30.0080 C   0  0  0  0  0  0  0  0  0  0  0  0
  -28.2901   22.5615  -29.8895 C   0  0  0  0  0  0  0  0  0  0  0  0
  -28.0912   21.1780  -30.4219 C   0  0  0  0  0  0  0  0  0  0  0  0
  -28.0641   20.2016  -29.3666 N   0  0  0  0  0  0  0  0  0  0  0  0
  -26.9272   19.8400  -28.6437 C   0  0  0  0  0  0  0  0  0  0  0  0
  -25.6725   20.4027  -28.9524 N   0  0  0  0  0  0  0  0  0  0  0  0
  -24.5384   20.1413  -30.1683 S   0  0  0  0  0  6  0  0  0  0  0  0
  -23.1665   19.8785  -29.4253 O   0  0  0  0  0  0  0  0  0  0  0  0
  -24.2479   21.2965  -31.0608 O   0  0  0  0  0  0  0  0  0  0  0  0
  -24.8214   18.6439  -31.0021 C   0  0  0  0  0  0  0  0  0  0  0  0
  -25.3112   18.6737  -32.2865 C   0  0  0  0  0  0  0  0  0  0  0  0
  -25.6160   17.4852  -32.9667 C   0  0  0  0  0  0  0  0  0  0  0  0
  -25.4205   16.2738  -32.3358 C   0  0  0  0  0  0  0  0  0  0  0  0
  -24.9328   16.2345  -31.0554 C   0  0  0  0  0  0  0  0  0  0  0  0
  -24.6383   17.4420  -30.4034 C   0  0  0  0  0  0  0  0  0  0  0  0
  -27.3804   18.9069  -27.7654 C   0  0  0  0  0  0  0  0  0  0  0  0
  -26.5172   17.9100  -26.6343 S   0  0  0  0  0  6  0  0  0  0  0  0
  -25.0780   17.7768  -27.2061 O   0  0  0  0  0  0  0  0  0  0  0  0
  -26.9519   16.5346  -26.4531 O   0  0  0  0  0  0  0  0  0  0  0  0
  -26.3389   18.7524  -25.0832 C   0  0  0  0  0  0  0  0  0  0  0  0
  -27.1398   18.3635  -24.0026 C   0  0  0  0  0  0  0  0  0  0  0  0
  -27.0509   18.9791  -22.7734 C   0  0  0  0  0  0  0  0  0  0  0  0
  -26.1604   20.0100  -22.5643 C   0  0  0  0  0  0  0  0  0  0  0  0
  -26.0676   20.6774  -21.2228 C   0  0  0  0  0  0  0  0  0  0  0  0
  -25.3694   20.3997  -23.6185 C   0  0  0  0  0  0  0  0  0  0  0  0
  -25.4608   19.7719  -24.8704 C   0  0  0  0  0  0  0  0  0  0  0  0
  -28.7816   18.7070  -27.9485 C   0  0  0  0  0  0  0  0  0  0  0  0
  -29.6771   17.9154  -27.3368 N   0  0  0  0  0  0  0  0  0  0  0  0
  -30.9861   17.9340  -27.7235 C   0  0  0  0  0  0  0  0  0  0  0  0
  -31.9352   17.1381  -27.1189 C   0  0  0  0  0  0  0  0  0  0  0  0
  -33.2694   17.1590  -27.5118 C   0  0  0  0  0  0  0  0  0  0  0  0
  -33.6314   18.0103  -28.5407 C   0  0  0  0  0  0  0  0  0  0  0  0
  -32.6799   18.7976  -29.1354 C   0  0  0  0  0  0  0  0  0  0  0  0
  -31.3481   18.7787  -28.7453 C   0  0  0  0  0  0  0  0  0  0  0  0
  -30.4417   19.5615  -29.3449 N   0  0  0  0  0  0  0  0  0  0  0  0
  -29.1340   19.5403  -28.9556 C   0  0  0  0  0  0  0  0  0  0  0  0
  1  2  2  0
  2  3  1  0
  3  4  1  0
  4  5  1  0
  5  6  1  0
  6  7  1  0
  7  8  2  0
  7  9  2  0
  7 10  1  0
 10 11  2  0
 11 12  1  0
 12 13  2  0
 13 14  1  0
 14 15  2  0
  5 16  2  0
 16 17  1  0
 17 18  2  0
 17 19  2  0
 17 20  1  0
 20 21  2  0
 21 22  1  0
 22 23  2  0
 23 24  1  0
 23 25  1  0
 25 26  2  0
 16 27  1  0
 27 28  2  0
 28 29  1  0
 29 30  2  0
 30 31  1  0
 31 32  2  0
 32 33  1  0
 33 34  2  0
 34 35  1  0
 35 36  2  0
 36  4  1  0
 15 10  1  0
 26 20  1  0
 36 27  1  0
 34 29  1  0
M  END
$$$$
