
     RDKit          3D

 35 37  0  0  0  0  0  0  0  0999 V2000
    4.7689   15.8307  -20.2596 C   0  0  0  0  0  0  0  0  0  0  0  0
    3.4483   16.4634  -20.5493 N   0  0  0  0  0  0  0  0  0  0  0  0
    2.8464   15.9761  -21.7515 C   0  0  0  0  0  0  0  0  0  0  0  0
    2.9934   17.4254  -19.6734 C   0  0  0  0  0  0  0  0  0  0  0  0
    3.8299   17.6820  -18.6957 O   0  0  0  0  0  0  0  0  0  0  0  0
    1.7902   18.2259  -19.5903 C   0  0  0  0  0  0  0  0  0  0  0  0
    2.1194   19.5200  -18.7692 C   0  0  0  0  0  0  0  0  0  0  0  0
    3.1772   20.3370  -19.4325 C   0  0  0  0  0  0  0  0  0  0  0  0
    3.5156   21.5317  -18.6941 N   0  0  0  0  0  0  0  0  0  0  0  0
    2.4489   22.5175  -18.6802 C   0  0  0  0  0  0  0  0  0  0  0  0
    3.1396   23.8820  -18.5581 C   0  0  0  0  0  0  0  0  0  0  0  0
    4.3655   23.6743  -17.6685 C   0  0  0  0  0  0  0  0  0  0  0  0
    5.3471   23.1166  -18.5190 O   0  0  0  0  0  0  0  0  0  0  0  0
    4.8756   24.9250  -17.1067 C   0  0  0  0  0  0  0  0  0  0  0  0
    4.4593   25.4848  -15.9102 C   0  0  0  0  0  0  0  0  0  0  0  0
    5.0121   26.6629  -15.4702 C   0  0  0  0  0  0  0  0  0  0  0  0
    5.9891   27.3452  -16.1712 C   0  0  0  0  0  0  0  0  0  0  0  0
    6.6957   28.8450  -15.6139 Cl  0  0  0  0  0  0  0  0  0  0  0  0
    6.4179   26.7939  -17.3774 C   0  0  0  0  0  0  0  0  0  0  0  0
    5.8627   25.6153  -17.8143 C   0  0  0  0  0  0  0  0  0  0  0  0
    4.0401   22.6296  -16.6454 C   0  0  0  0  0  0  0  0  0  0  0  0
    3.9765   21.2673  -17.3490 C   0  0  0  0  0  0  0  0  0  0  0  0
    1.2334   18.7491  -20.8487 C   0  0  0  0  0  0  0  0  0  0  0  0
    1.9668   19.0490  -21.9751 C   0  0  0  0  0  0  0  0  0  0  0  0
    1.3559   19.5334  -23.0903 C   0  0  0  0  0  0  0  0  0  0  0  0
   -0.0021   19.7420  -23.1407 C   0  0  0  0  0  0  0  0  0  0  0  0
   -0.7437   19.4498  -22.0336 C   0  0  0  0  0  0  0  0  0  0  0  0
   -0.1363   18.9585  -20.8975 C   0  0  0  0  0  0  0  0  0  0  0  0
    0.7402   17.5401  -18.8180 C   0  0  0  0  0  0  0  0  0  0  0  0
    0.3437   17.9584  -17.5382 C   0  0  0  0  0  0  0  0  0  0  0  0
   -0.6436   17.2820  -16.8550 C   0  0  0  0  0  0  0  0  0  0  0  0
   -1.2939   16.1810  -17.3611 C   0  0  0  0  0  0  0  0  0  0  0  0
   -0.9089   15.7668  -18.6172 C   0  0  0  0  0  0  0  0  0  0  0  0
    0.0930   16.4398  -19.3298 C   0  0  0  0  0  0  0  0  0  0  0  0
    2.9879   20.9103  -18.6966 Cl  0  0  0  0  0  0  0  0  0  0  0  0
  1  2  1  0
  2  3  1  0
  2  4  1  0
  4  5  2  0
  4  6  1  0
  6  7  1  0
  7  8  1  0
  8  9  1  0
  9 10  1  0
 10 11  1  0
 11 12  1  0
 12 13  1  0
 12 14  1  0
 14 15  2  0
 15 16  1  0
 16 17  2  0
 17 18  1  0
 17 19  1  0
 19 20  2  0
 12 21  1  0
 21 22  1  0
  6 23  1  0
 23 24  2  0
 24 25  1  0
 25 26  2  0
 26 27  1  0
 27 28  2  0
  6 29  1  0
 29 30  2  0
 30 31  1  0
 31 32  2  0
 32 33  1  0
 33 34  2  0
 22  9  1  0
 28 23  1  0
 34 29  1  0
 20 14  1  0
M  END
$$$$
