
     RDKit          3D

 23 24  0  0  0  0  0  0  0  0999 V2000
  -16.5114   -0.4607  -32.5787 Cl  0  0  0  0  0  0  0  0  0  0  0  0
  -16.5126   -0.4585  -32.5801 Cl  0  0  0  0  0  0  0  0  0  0  0  0
  -20.4834    0.4575  -34.0919 C   0  0  0  0  0  0  0  0  0  0  0  0
  -20.0472    1.5259  -34.8383 C   0  0  0  0  0  0  0  0  0  0  0  0
  -18.6884    1.6909  -34.9908 C   0  0  0  0  0  0  0  0  0  0  0  0
  -17.7962    0.8014  -34.4055 C   0  0  0  0  0  0  0  0  0  0  0  0
  -18.2055   -0.2596  -33.6650 C   0  0  0  0  0  0  0  0  0  0  0  0
  -19.5901   -0.4182  -33.5161 C   0  0  0  0  0  0  0  0  0  0  0  0
  -17.4941   -1.2710  -32.9903 N   0  0  0  0  0  0  0  0  0  0  0  0
  -16.3042   -1.2438  -32.4742 C   0  0  0  0  0  0  0  0  0  0  0  0
  -15.8411   -2.4318  -31.8462 N   0  0  0  0  0  0  0  0  0  0  0  0
  -16.4734   -2.8672  -30.6274 C   0  0  0  0  0  0  0  0  0  0  0  0
  -15.6115   -3.6999  -29.7419 C   0  0  0  0  0  0  0  0  0  0  0  0
  -14.6960   -4.5674  -30.4257 N   0  0  0  0  0  0  0  0  0  0  0  0
  -14.9733   -4.6419  -31.8478 C   0  0  0  0  0  0  0  0  0  0  0  0
  -14.7616   -3.2191  -32.3857 C   0  0  0  0  0  0  0  0  0  0  0  0
  -15.3196   -0.1729  -32.4216 C   0  0  0  0  0  0  0  0  0  0  0  0
  -14.4818   -0.2956  -31.3350 C   0  0  0  0  0  0  0  0  0  0  0  0
  -13.4833    0.6379  -31.1298 C   0  0  0  0  0  0  0  0  0  0  0  0
  -13.3503    1.6757  -32.0245 C   0  0  0  0  0  0  0  0  0  0  0  0
  -14.1673    1.8305  -33.1194 C   0  0  0  0  0  0  0  0  0  0  0  0
  -15.1530    0.8899  -33.3027 C   0  0  0  0  0  0  0  0  0  0  0  0
  -16.1043    1.2692  -34.7757 S   0  0  0  0  0  0  0  0  0  0  0  0
  3  4  2  0
  4  5  1  0
  5  6  2  0
  6  7  1  0
  7  8  2  0
  7  9  1  0
  9 10  2  0
 10 11  1  0
 11 12  1  0
 12 13  1  0
 13 14  1  0
 14 15  1  0
 15 16  1  0
 10 17  1  0
 17 18  2  0
 18 19  1  0
 19 20  2  0
 20 21  1  0
 21 22  2  0
 22 23  1  0
  8  3  1  0
 16 11  1  0
 22 17  1  0
 23  6  1  0
M  END
$$$$
