
     RDKit          3D

 40 44  0  0  0  0  0  0  0  0999 V2000
  -31.7428   20.4291  -28.1590 C   0  0  0  0  0  0  0  0  0  0  0  0
  -30.8637   19.5160  -28.9419 C   0  0  0  0  0  0  0  0  0  0  0  0
  -30.2052   19.9091  -30.1247 C   0  0  0  0  0  0  0  0  0  0  0  0
  -30.2847   21.1770  -30.7440 N   0  0  0  0  0  0  0  0  0  0  0  0
  -29.4354   22.2628  -30.3512 C   0  0  0  0  0  0  0  0  0  0  0  0
  -28.5870   22.1071  -29.4313 O   0  0  0  0  0  0  0  0  0  0  0  0
  -29.5097   23.5007  -30.9482 O   0  0  0  0  0  0  0  0  0  0  0  0
  -28.7363   24.6258  -30.6262 C   0  0  0  0  0  0  0  0  0  0  0  0
  -27.2635   24.4699  -30.7697 C   0  0  2  0  0  0  0  0  0  0  0  0
  -26.6334   25.7720  -30.2672 C   0  0  0  0  0  0  0  0  0  0  0  0
  -25.2722   25.8069  -30.4338 O   0  0  0  0  0  0  0  0  0  0  0  0
  -24.8538   25.4725  -31.7062 C   0  0  0  0  0  0  0  0  0  0  0  0
  -25.3439   24.0764  -32.0069 C   0  0  0  0  0  0  0  0  0  0  0  0
  -26.8108   24.1498  -32.0895 N   0  0  0  0  0  0  0  0  0  0  0  0
  -29.5093   18.8125  -30.5437 C   0  0  0  0  0  0  0  0  0  0  0  0
  -29.7111   17.7860  -29.6842 N   0  0  0  0  0  0  0  0  0  0  0  0
  -29.2448   16.5469  -29.7027 N   0  0  0  0  0  0  0  0  0  0  0  0
  -29.5829   15.6589  -28.7326 C   0  0  0  0  0  0  0  0  0  0  0  0
  -30.4012   16.0620  -27.7499 N   0  0  0  0  0  0  0  0  0  0  0  0
  -30.8792   17.3168  -27.7214 C   0  0  0  0  0  0  0  0  0  0  0  0
  -31.7183   17.6618  -26.6499 N   0  0  0  0  0  0  0  0  0  0  0  0
  -32.2036   16.6914  -25.6896 C   0  0  0  0  0  0  0  0  0  0  0  0
  -32.4810   15.3964  -26.0165 C   0  0  0  0  0  0  0  0  0  0  0  0
  -32.9296   14.4763  -25.0573 C   0  0  0  0  0  0  0  0  0  0  0  0
  -33.1054   14.8579  -23.7419 C   0  0  0  0  0  0  0  0  0  0  0  0
  -32.8243   16.1659  -23.4165 C   0  0  0  0  0  0  0  0  0  0  0  0
  -33.0757   16.2809  -22.0627 C   0  0  0  0  0  0  0  0  0  0  0  0
  -33.4846   15.0711  -21.6524 N   0  0  0  0  0  0  0  0  0  0  0  0
  -33.5124   14.2083  -22.6257 N   0  0  0  0  0  0  0  0  0  0  0  0
  -33.9208   12.7997  -22.5401 C   0  0  0  0  0  0  0  0  0  0  0  0
  -35.4014   12.8084  -22.7631 C   0  0  0  0  0  0  0  0  0  0  0  0
  -35.9874   12.7065  -24.0007 C   0  0  0  0  0  0  0  0  0  0  0  0
  -37.3568   12.7196  -24.1588 C   0  0  0  0  0  0  0  0  0  0  0  0
  -38.1991   12.8363  -23.0732 C   0  0  0  0  0  0  0  0  0  0  0  0
  -37.6341   12.9397  -21.8246 C   0  0  0  0  0  0  0  0  0  0  0  0
  -38.3982   13.0589  -20.7006 F   0  0  0  0  0  0  0  0  0  0  0  0
  -36.2678   12.9269  -21.6650 C   0  0  0  0  0  0  0  0  0  0  0  0
  -32.3795   17.0754  -24.3712 C   0  0  0  0  0  0  0  0  0  0  0  0
  -30.5487   18.2123  -28.6877 C   0  0  0  0  0  0  0  0  0  0  0  0
  -31.5301   18.1941  -26.9749 Cl  0  0  0  0  0  0  0  0  0  0  0  0
  1  2  1  0
  2  3  1  0
  3  4  1  0
  4  5  1  0
  5  6  2  0
  5  7  1  0
  7  8  1  0
  9  8  1  6
  9 10  1  0
 10 11  1  0
 11 12  1  0
 12 13  1  0
 13 14  1  0
  3 15  2  0
 15 16  1  0
 16 17  1  0
 17 18  2  0
 18 19  1  0
 19 20  2  0
 20 21  1  0
 21 22  1  0
 22 23  2  0
 23 24  1  0
 24 25  2  0
 25 26  1  0
 26 27  1  0
 27 28  2  0
 28 29  1  0
 29 30  1  0
 30 31  1  0
 31 32  2  0
 32 33  1  0
 33 34  2  0
 34 35  1  0
 35 36  1  0
 35 37  2  0
 26 38  2  0
 20 39  1  0
 39  2  2  0
 14  9  1  0
 39 16  1  0
 38 22  1  0
 29 25  1  0
 37 31  1  0
M  END
$$$$
