
     RDKit          3D

 27 29  0  0  0  0  0  0  0  0999 V2000
  -17.9971   44.8645  -23.5930 C   0  0  0  0  0  0  0  0  0  0  0  0
  -18.1095   43.3891  -23.6335 C   0  0  0  0  0  0  0  0  0  0  0  0
  -18.0049   42.5862  -22.5169 C   0  0  0  0  0  0  0  0  0  0  0  0
  -18.1148   41.2129  -22.5926 C   0  0  0  0  0  0  0  0  0  0  0  0
  -18.0030   40.5282  -21.4408 N   0  0  0  0  0  0  0  0  0  0  0  0
  -18.1132   39.1925  -21.4933 C   0  0  0  0  0  0  0  0  0  0  0  0
  -18.0198   38.3693  -20.3933 C   0  0  0  0  0  0  0  0  0  0  0  0
  -17.8186   38.8912  -19.2625 O   0  0  0  0  0  0  0  0  0  0  0  0
  -18.1388   37.0335  -20.5068 N   0  0  0  0  0  0  0  0  0  0  0  0
  -18.3524   36.5083  -21.7230 C   0  0  0  0  0  0  0  0  0  0  0  0
  -18.4563   35.2385  -21.7663 O   0  0  0  0  0  0  0  0  0  0  0  0
  -18.4589   37.2196  -22.8545 N   0  0  0  0  0  0  0  0  0  0  0  0
  -18.3462   38.5576  -22.7856 C   0  0  0  0  0  0  0  0  0  0  0  0
  -18.4550   39.2605  -23.9283 N   0  0  0  0  0  0  0  0  0  0  0  0
  -18.6932   38.6168  -25.2283 C   0  0  0  0  0  0  0  0  0  0  0  0
  -20.1298   38.6810  -25.6068 C   0  0  0  0  0  0  0  0  0  0  0  0
  -20.9764   37.9018  -24.7970 O   0  0  0  0  0  0  0  0  0  0  0  0
  -20.4194   38.2818  -27.0503 C   0  0  0  0  0  0  0  0  0  0  0  0
  -20.2386   36.8454  -27.0566 O   0  0  0  0  0  0  0  0  0  0  0  0
  -21.8036   38.5757  -27.5090 C   0  0  0  0  0  0  0  0  0  0  0  0
  -22.7392   38.1803  -26.5742 O   0  0  0  0  0  0  0  0  0  0  0  0
  -21.9729   39.9002  -28.1265 C   0  0  0  0  0  0  0  0  0  0  0  0
  -21.7634   40.9403  -27.1685 O   0  0  0  0  0  0  0  0  0  0  0  0
  -18.3387   40.5970  -23.8279 C   0  0  0  0  0  0  0  0  0  0  0  0
  -18.4405   41.4140  -24.9290 C   0  0  0  0  0  0  0  0  0  0  0  0
  -18.3325   42.7930  -24.8698 C   0  0  0  0  0  0  0  0  0  0  0  0
  -18.4585   43.5610  -26.1150 C   0  0  0  0  0  0  0  0  0  0  0  0
  1  2  1  0
  2  3  2  0
  3  4  1  0
  4  5  1  0
  5  6  2  0
  6  7  1  0
  7  8  2  0
  7  9  1  0
  9 10  1  0
 10 11  2  0
 10 12  1  0
 12 13  2  0
 13 14  1  0
 14 15  1  0
 15 16  1  0
 16 17  1  0
 16 18  1  0
 18 19  1  0
 18 20  1  0
 20 21  1  0
 20 22  1  0
 22 23  1  0
 14 24  1  0
 24 25  1  0
 25 26  2  0
 26 27  1  0
 26  2  1  0
 24  4  2  0
 13  6  1  0
M  END
$$$$
