
     RDKit          3D

 28 31  0  0  0  0  0  0  0  0999 V2000
  -23.3287   21.9071  -36.1249 C   0  0  0  0  0  0  0  0  0  0  0  0
  -24.2253   20.3551  -36.4646 S   0  0  0  0  0  0  0  0  0  0  0  0
  -23.2034   19.2942  -37.4926 C   0  0  0  0  0  0  0  0  0  0  0  0
  -23.8125   18.1941  -38.0708 C   0  0  0  0  0  0  0  0  0  0  0  0
  -23.0346   17.3762  -38.8608 C   0  0  0  0  0  0  0  0  0  0  0  0
  -21.6903   17.6557  -39.0620 C   0  0  0  0  0  0  0  0  0  0  0  0
  -21.0667   18.7524  -38.4904 C   0  0  0  0  0  0  0  0  0  0  0  0
  -19.6993   19.0456  -38.6888 N   0  0  0  0  0  0  0  0  0  0  0  0
  -18.7434   18.9153  -37.5920 C   0  0  0  0  0  0  0  0  0  0  0  0
  -19.0042   19.6304  -36.6128 O   0  0  0  0  0  0  0  0  0  0  0  0
  -17.6205   18.0093  -37.7193 C   0  0  0  0  0  0  0  0  0  0  0  0
  -16.3802   18.1511  -36.9668 C   0  0  0  0  0  0  0  0  0  0  0  0
  -15.9880   17.1535  -35.9714 C   0  0  0  0  0  0  0  0  0  0  0  0
  -16.8489   16.2597  -35.3886 C   0  0  0  0  0  0  0  0  0  0  0  0
  -18.2478   16.0702  -35.8040 C   0  0  0  0  0  0  0  0  0  0  0  0
  -16.4327   15.3959  -34.4032 N   0  0  0  0  0  0  0  0  0  0  0  0
  -15.1726   15.4072  -33.9924 C   0  0  0  0  0  0  0  0  0  0  0  0
  -14.4920   14.6606  -33.0341 C   0  0  0  0  0  0  0  0  0  0  0  0
  -14.8452   13.6556  -32.1678 C   0  0  0  0  0  0  0  0  0  0  0  0
  -13.8941   13.1144  -31.3198 C   0  0  0  0  0  0  0  0  0  0  0  0
  -12.5865   13.5870  -31.3457 C   0  0  0  0  0  0  0  0  0  0  0  0
  -12.3058   14.5632  -32.2079 N   0  0  0  0  0  0  0  0  0  0  0  0
  -13.2072   15.1125  -33.0471 C   0  0  0  0  0  0  0  0  0  0  0  0
  -13.1606   16.0793  -33.9781 N   0  0  0  0  0  0  0  0  0  0  0  0
  -14.3344   16.2686  -34.5556 N   0  0  0  0  0  0  0  0  0  0  0  0
  -14.6743   17.1401  -35.5212 C   0  0  0  0  0  0  0  0  0  0  0  0
  -13.6122   18.0432  -36.0672 C   0  0  0  0  0  0  0  0  0  0  0  0
  -21.8660   19.5623  -37.6997 C   0  0  0  0  0  0  0  0  0  0  0  0
  1  2  1  0
  2  3  1  0
  3  4  2  0
  4  5  1  0
  5  6  2  0
  6  7  1  0
  7  8  1  0
  8  9  1  0
  9 10  2  0
  9 11  1  0
 11 12  1  0
 12 13  1  0
 13 14  1  0
 14 15  1  0
 14 16  2  0
 16 17  1  0
 17 18  2  0
 18 19  1  0
 19 20  2  0
 20 21  1  0
 21 22  2  0
 22 23  1  0
 23 24  2  0
 24 25  1  0
 25 26  1  0
 26 27  1  0
  7 28  2  0
 28  3  1  0
 26 13  2  0
 25 17  1  0
 23 18  1  0
M  END
$$$$
