
     RDKit          3D

 24 27  0  0  0  0  0  0  0  0999 V2000
  -33.4341   15.8006  -23.5948 N   0  0  0  0  0  0  0  0  0  0  0  0
  -32.6360   16.4830  -24.5470 C   0  0  0  0  0  0  0  0  0  0  0  0
  -32.3109   17.7670  -24.3480 N   0  0  0  0  0  0  0  0  0  0  0  0
  -31.5519   18.3904  -25.2830 C   0  0  0  0  0  0  0  0  0  0  0  0
  -31.0934   17.7756  -26.4321 C   0  0  0  0  0  0  0  0  0  0  0  0
  -30.2969   18.5024  -27.3857 C   0  0  0  0  0  0  0  0  0  0  0  0
  -30.8700   18.9977  -28.5359 C   0  0  0  0  0  0  0  0  0  0  0  0
  -30.0858   19.7135  -29.4510 C   0  0  0  0  0  0  0  0  0  0  0  0
  -28.7887   19.9351  -29.2462 N   0  0  0  0  0  0  0  0  0  0  0  0
  -28.2277   19.4396  -28.1020 C   0  0  0  0  0  0  0  0  0  0  0  0
  -26.8384   19.7044  -27.9520 N   0  0  0  0  0  0  0  0  0  0  0  0
  -26.2107   19.2757  -26.7674 C   0  0  0  0  0  0  0  0  0  0  0  0
  -26.9283   18.5351  -25.8378 C   0  0  0  0  0  0  0  0  0  0  0  0
  -26.3317   18.1201  -24.6655 C   0  0  0  0  0  0  0  0  0  0  0  0
  -25.0551   18.4082  -24.3761 N   0  0  0  0  0  0  0  0  0  0  0  0
  -24.3418   19.1220  -25.2588 C   0  0  0  0  0  0  0  0  0  0  0  0
  -24.9034   19.5585  -26.4494 C   0  0  0  0  0  0  0  0  0  0  0  0
  -28.9912   18.7680  -27.2545 N   0  0  0  0  0  0  0  0  0  0  0  0
  -31.4385   16.4630  -26.6100 C   0  0  0  0  0  0  0  0  0  0  0  0
  -30.9735   15.7017  -27.7838 C   0  0  0  0  0  0  0  0  0  0  0  0
  -32.0849   15.4948  -28.8016 C   0  0  0  0  0  0  0  0  0  0  0  0
  -31.4941   15.2867  -30.2089 C   0  0  0  0  0  0  0  0  0  0  0  0
  -32.3907   16.4259  -29.8764 C   0  0  0  0  0  0  0  0  0  0  0  0
  -32.1976   15.8727  -25.6569 N   0  0  0  0  0  0  0  0  0  0  0  0
  1  2  1  0
  2  3  2  0
  3  4  1  0
  4  5  2  0
  5  6  1  0
  6  7  2  0
  7  8  1  0
  8  9  2  0
  9 10  1  0
 10 11  1  0
 11 12  1  0
 12 13  2  0
 13 14  1  0
 14 15  2  0
 15 16  1  0
 16 17  2  0
 10 18  2  0
  5 19  1  0
 19 20  1  0
 20 21  1  0
 21 22  1  0
 22 23  1  0
 19 24  2  0
 24  2  1  0
 18  6  1  0
 23 21  1  0
 17 12  1  0
M  END
$$$$
