
     RDKit          3D

 18 18  0  0  0  0  0  0  0  0999 V2000
  -23.5623   16.6497  -39.7173 C   0  0  0  0  0  0  0  0  0  0  0  0
  -22.4412   16.2640  -38.7612 C   0  0  0  0  0  0  0  0  0  0  0  0
  -22.5740   17.2040  -37.5735 C   0  0  0  0  0  0  0  0  0  0  0  0
  -21.4616   16.9201  -36.6230 C   0  0  0  0  0  0  0  0  0  0  0  0
  -21.3734   17.7290  -35.3876 C   0  0  0  0  0  0  0  0  0  0  0  0
  -20.6198   17.2280  -34.2307 C   0  0  0  0  0  0  0  0  0  0  0  0
  -20.2772   18.1288  -33.1788 N   0  0  0  0  0  0  0  0  0  0  0  0
  -18.9466   18.5841  -32.9701 C   0  0  0  0  0  0  0  0  0  0  0  0
  -18.6557   19.6420  -33.6256 O   0  0  0  0  0  0  0  0  0  0  0  0
  -17.9636   18.0162  -32.1543 N   0  0  0  0  0  0  0  0  0  0  0  0
  -17.7435   16.6777  -32.2826 C   0  0  0  0  0  0  0  0  0  0  0  0
  -16.8252   15.9722  -31.5645 C   0  0  0  0  0  0  0  0  0  0  0  0
  -16.6475   14.6392  -31.7329 F   0  0  0  0  0  0  0  0  0  0  0  0
  -16.0602   16.6614  -30.6383 C   0  0  0  0  0  0  0  0  0  0  0  0
  -15.2086   16.0130  -29.9709 O   0  0  0  0  0  0  0  0  0  0  0  0
  -16.2643   17.9765  -30.5003 N   0  0  0  0  0  0  0  0  0  0  0  0
  -17.2017   18.6381  -31.2484 C   0  0  0  0  0  0  0  0  0  0  0  0
  -17.3399   19.8573  -31.0703 O   0  0  0  0  0  0  0  0  0  0  0  0
  1  2  1  0
  2  3  1  0
  3  4  1  0
  4  5  1  0
  5  6  1  0
  6  7  1  0
  7  8  1  0
  8  9  2  0
  8 10  1  0
 10 11  1  0
 11 12  2  0
 12 13  1  0
 12 14  1  0
 14 15  2  0
 14 16  1  0
 16 17  1  0
 17 18  2  0
 17 10  1  0
M  END
$$$$
