
     RDKit          3D

 28 31  0  0  0  0  0  0  0  0999 V2000
  -17.3952   37.7379  -21.5062 O   0  0  0  0  0  0  0  0  0  0  0  0
  -18.1799   38.6251  -21.9417 C   0  0  0  0  0  0  0  0  0  0  0  0
  -19.1569   38.2320  -22.8881 N   0  0  0  0  0  0  0  0  0  0  0  0
  -19.9487   37.0476  -22.8422 C   0  0  0  0  0  0  0  0  0  0  0  0
  -19.1510   35.8389  -23.2265 C   0  0  2  0  0  0  0  0  0  0  0  0
  -19.9211   34.7088  -23.3950 O   0  0  0  0  0  0  0  0  0  0  0  0
  -18.1005   35.5481  -22.1405 C   0  0  0  0  0  0  0  0  0  0  0  0
  -17.8151   34.1523  -22.1876 N   0  0  0  0  0  0  0  0  0  0  0  0
  -18.2901   33.4350  -23.3117 C   0  0  0  0  0  0  0  0  0  0  0  0
  -18.6764   32.0005  -23.0487 C   0  0  0  0  0  0  0  0  0  0  0  0
  -17.6124   31.4106  -22.1954 C   0  0  0  0  0  0  0  0  0  0  0  0
  -17.0032   30.2135  -22.3969 C   0  0  0  0  0  0  0  0  0  0  0  0
  -16.0241   29.7498  -21.5466 C   0  0  0  0  0  0  0  0  0  0  0  0
  -15.6532   30.5248  -20.4600 C   0  0  0  0  0  0  0  0  0  0  0  0
  -16.2447   31.7435  -20.2190 C   0  0  0  0  0  0  0  0  0  0  0  0
  -17.2163   32.1590  -21.0987 C   0  0  0  0  0  0  0  0  0  0  0  0
  -17.9198   33.4669  -20.9281 C   0  0  0  0  0  0  0  0  0  0  0  0
  -18.0948   40.0134  -21.4941 C   0  0  0  0  0  0  0  0  0  0  0  0
  -18.1759   41.0911  -22.3429 C   0  0  0  0  0  0  0  0  0  0  0  0
  -18.0912   42.4010  -21.8886 C   0  0  0  0  0  0  0  0  0  0  0  0
  -18.1782   43.5164  -22.7705 N   0  0  0  0  0  0  0  0  0  0  0  0
  -18.8526   43.3193  -24.0380 C   0  0  0  0  0  0  0  0  0  0  0  0
  -19.2065   44.5931  -24.7555 C   0  0  0  0  0  0  0  0  0  0  0  0
  -20.5483   44.1891  -24.7199 O   0  0  0  0  0  0  0  0  0  0  0  0
  -20.3534   43.1816  -23.7671 C   0  0  0  0  0  0  0  0  0  0  0  0
  -17.9234   42.5457  -20.5513 N   0  0  0  0  0  0  0  0  0  0  0  0
  -17.8402   41.5178  -19.6922 C   0  0  0  0  0  0  0  0  0  0  0  0
  -17.9286   40.2823  -20.1911 N   0  0  0  0  0  0  0  0  0  0  0  0
  1  2  2  0
  2  3  1  0
  3  4  1  0
  4  5  1  0
  5  6  1  1
  5  7  1  0
  7  8  1  0
  8  9  1  0
  9 10  1  0
 10 11  1  0
 11 12  2  0
 12 13  1  0
 13 14  2  0
 14 15  1  0
 15 16  2  0
 16 17  1  0
  2 18  1  0
 18 19  2  0
 19 20  1  0
 20 21  1  0
 21 22  1  0
 22 23  1  0
 23 24  1  0
 24 25  1  0
 20 26  2  0
 26 27  1  0
 27 28  2  0
 17  8  1  0
 28 18  1  0
 16 11  1  0
 25 22  1  0
M  END
$$$$
