
     RDKit          3D

 29 33  0  0  0  0  0  0  0  0999 V2000
  -45.0111    6.7577  -46.7369 C   0  0  0  0  0  0  0  0  0  0  0  0
  -44.4490    6.0942  -45.5298 C   0  0  0  0  0  0  0  0  0  0  0  0
  -44.1920    4.8834  -45.6571 O   0  0  0  0  0  0  0  0  0  0  0  0
  -44.2130    6.7212  -44.3453 O   0  0  0  0  0  0  0  0  0  0  0  0
  -43.0095    6.5972  -43.5783 C   0  0  2  0  0  0  0  0  0  0  0  0
  -42.0168    5.7936  -44.2806 C   0  0  0  0  0  0  0  0  0  0  0  0
  -42.1235    4.8142  -45.3620 C   0  0  0  0  0  0  0  0  0  0  0  0
  -40.8256    5.9332  -43.9309 O   0  0  0  0  0  0  0  0  0  0  0  0
  -43.4181    5.7245  -42.3718 C   0  0  0  0  0  0  0  0  0  0  0  0
  -42.6781    6.3011  -41.1848 C   0  0  0  0  0  0  0  0  0  0  0  0
  -42.9736    7.7221  -41.4469 C   0  0  1  0  0  0  0  0  0  0  0  0
  -42.2618    8.7706  -40.7111 C   0  0  2  0  0  0  0  0  0  0  0  0
  -42.1182    8.5291  -39.2652 C   0  0  0  0  0  0  0  0  0  0  0  0
  -42.0180    9.5647  -38.4664 C   0  0  0  0  0  0  0  0  0  0  0  0
  -41.8430    9.3801  -36.7251 Cl  0  0  0  0  0  0  0  0  0  0  0  0
  -42.0510   10.9155  -39.0076 C   0  0  0  0  0  0  0  0  0  0  0  0
  -41.6236   11.9076  -38.2380 C   0  0  0  0  0  0  0  0  0  0  0  0
  -41.6765   13.2406  -38.8129 C   0  0  0  0  0  0  0  0  0  0  0  0
  -40.8039   14.0794  -38.5586 O   0  0  0  0  0  0  0  0  0  0  0  0
  -42.7952   13.5751  -39.7080 C   0  0  2  0  0  0  0  0  0  0  0  0
  -44.1335   13.0112  -39.3092 C   0  0  0  0  0  0  0  0  0  0  0  0
  -43.4072   12.4145  -40.4207 C   0  0  2  0  0  0  0  0  0  0  0  0
  -42.5059   11.2388  -40.3756 C   0  0  1  0  0  0  0  0  0  0  0  0
  -41.2862   11.6002  -41.2208 C   0  0  0  0  0  0  0  0  0  0  0  0
  -43.1770    9.9879  -40.9085 C   0  0  1  0  0  0  0  0  0  0  0  0
  -43.7157   10.0888  -42.2722 C   0  0  0  0  0  0  0  0  0  0  0  0
  -43.4662    9.0679  -43.2936 C   0  0  0  0  0  0  0  0  0  0  0  0
  -42.6314    7.8640  -42.9173 C   0  0  2  0  0  0  0  0  0  0  0  0
  -41.1996    8.2048  -43.1933 C   0  0  0  0  0  0  0  0  0  0  0  0
  1  2  1  0
  2  3  2  0
  2  4  1  0
  5  4  1  6
  5  6  1  0
  6  7  1  0
  6  8  2  0
  5  9  1  0
  9 10  1  0
 11 10  1  1
 11 12  1  0
 12 13  1  1
 13 14  2  0
 14 15  1  0
 14 16  1  0
 16 17  2  0
 17 18  1  0
 18 19  2  0
 18 20  1  0
 20 21  1  1
 22 21  1  1
 22 23  1  0
 23 24  1  6
 23 25  1  0
 25 26  1  6
 26 27  1  0
 27 28  1  0
 28 29  1  1
 28  5  1  0
 28 11  1  0
 25 12  1  0
 23 16  1  0
 22 20  1  0
M  END
$$$$
