
     RDKit          3D

 33 36  0  0  0  0  0  0  0  0999 V2000
  -28.1382   12.7520  -29.5689 C   0  0  0  0  0  0  0  0  0  0  0  0
  -29.1339   13.6199  -29.6931 C   0  0  0  0  0  0  0  0  0  0  0  0
  -28.8485   15.0691  -29.8099 C   0  0  0  0  0  0  0  0  0  0  0  0
  -27.8120   15.5946  -29.0333 N   0  0  0  0  0  0  0  0  0  0  0  0
  -26.5155   15.7047  -29.5423 C   0  0  0  0  0  0  0  0  0  0  0  0
  -26.1323   17.0721  -29.9640 C   0  0  2  0  0  0  0  0  0  0  0  0
  -24.7655   17.2439  -30.4314 C   0  0  0  0  0  0  0  0  0  0  0  0
  -23.8337   16.8619  -29.6357 O   0  0  0  0  0  0  0  0  0  0  0  0
  -24.3517   17.7833  -31.6605 N   0  0  0  0  0  0  0  0  0  0  0  0
  -24.5914   17.0144  -32.8954 C   0  0  0  0  0  0  0  0  0  0  0  0
  -23.8356   15.7220  -32.9120 C   0  0  0  0  0  0  0  0  0  0  0  0
  -24.1406   15.0457  -34.2402 C   0  0  0  0  0  0  0  0  0  0  0  0
  -23.4172   13.8131  -34.3838 N   0  0  0  0  0  0  0  0  0  0  0  0
  -23.5327   12.9085  -33.2889 C   0  0  0  0  0  0  0  0  0  0  0  0
  -23.6714   13.2500  -35.6784 C   0  0  0  0  0  0  0  0  0  0  0  0
  -23.7006   19.0305  -31.8173 C   0  0  0  0  0  0  0  0  0  0  0  0
  -23.5090   19.5999  -32.9186 O   0  0  0  0  0  0  0  0  0  0  0  0
  -23.2081   19.7302  -30.6763 N   0  0  0  0  0  0  0  0  0  0  0  0
  -22.5749   21.0353  -30.8808 C   0  0  0  0  0  0  0  0  0  0  0  0
  -22.1883   21.6294  -29.5306 C   0  0  0  0  0  0  0  0  0  0  0  0
  -26.4023   18.0097  -28.7675 C   0  0  0  0  0  0  0  0  0  0  0  0
  -27.8893   17.9364  -28.5141 C   0  0  0  0  0  0  0  0  0  0  0  0
  -28.3473   18.9796  -27.5908 C   0  0  0  0  0  0  0  0  0  0  0  0
  -27.8517   20.2777  -27.6073 C   0  0  0  0  0  0  0  0  0  0  0  0
  -28.3510   21.1968  -26.7010 C   0  0  0  0  0  0  0  0  0  0  0  0
  -29.3248   20.8541  -25.7863 C   0  0  0  0  0  0  0  0  0  0  0  0
  -29.8263   19.5647  -25.7600 C   0  0  0  0  0  0  0  0  0  0  0  0
  -30.7326   18.8898  -25.0532 N   0  0  0  0  0  0  0  0  0  0  0  0
  -30.7961   17.5966  -25.5028 C   0  0  0  0  0  0  0  0  0  0  0  0
  -29.8950   17.4752  -26.5229 C   0  0  0  0  0  0  0  0  0  0  0  0
  -29.3029   18.6852  -26.6764 C   0  0  0  0  0  0  0  0  0  0  0  0
  -29.5019   16.3269  -27.3976 C   0  0  0  0  0  0  0  0  0  0  0  0
  -28.1621   16.5242  -28.0025 C   0  0  1  0  0  0  0  0  0  0  0  0
  1  2  2  0
  2  3  1  0
  3  4  1  0
  4  5  1  0
  5  6  1  0
  6  7  1  1
  7  8  2  0
  7  9  1  0
  9 10  1  0
 10 11  1  0
 11 12  1  0
 12 13  1  0
 13 14  1  0
 13 15  1  0
  9 16  1  0
 16 17  2  0
 16 18  1  0
 18 19  1  0
 19 20  1  0
  6 21  1  0
 21 22  1  0
 22 23  1  0
 23 24  2  0
 24 25  1  0
 25 26  2  0
 26 27  1  0
 27 28  1  0
 28 29  1  0
 29 30  2  0
 30 31  1  0
 30 32  1  0
 33 32  1  6
 33  4  1  0
 33 22  1  0
 31 23  1  0
 31 27  2  0
M  END
$$$$
