
     RDKit          3D

 33 36  0  0  0  0  0  0  0  0999 V2000
  -15.6361   34.8717  -21.6290 C   0  0  0  0  0  0  0  0  0  0  0  0
  -16.8003   35.2136  -20.7431 C   0  0  0  0  0  0  0  0  0  0  0  0
  -17.7457   36.0801  -21.5048 C   0  0  0  0  0  0  0  0  0  0  0  0
  -17.4511   37.4328  -21.4925 C   0  0  0  0  0  0  0  0  0  0  0  0
  -18.2498   38.3272  -22.1452 C   0  0  0  0  0  0  0  0  0  0  0  0
  -17.9397   39.7629  -22.1297 C   0  0  0  0  0  0  0  0  0  0  0  0
  -18.5535   40.6698  -22.9024 N   0  0  0  0  0  0  0  0  0  0  0  0
  -18.0454   41.8628  -22.6534 O   0  0  0  0  0  0  0  0  0  0  0  0
  -17.1140   41.7660  -21.7381 C   0  0  0  0  0  0  0  0  0  0  0  0
  -16.2788   42.8180  -21.1470 C   0  0  0  0  0  0  0  0  0  0  0  0
  -15.4978   42.5772  -20.0400 C   0  0  0  0  0  0  0  0  0  0  0  0
  -14.7033   43.5664  -19.4697 C   0  0  0  0  0  0  0  0  0  0  0  0
  -13.9281   43.2872  -18.3528 O   0  0  0  0  0  0  0  0  0  0  0  0
  -13.7750   41.9293  -17.9849 C   0  0  0  0  0  0  0  0  0  0  0  0
  -14.7300   44.7781  -20.0499 N   0  0  0  0  0  0  0  0  0  0  0  0
  -15.4584   45.0812  -21.1182 C   0  0  0  0  0  0  0  0  0  0  0  0
  -15.4786   46.4276  -21.7461 C   0  0  0  0  0  0  0  0  0  0  0  0
  -16.6263   47.2278  -21.1756 C   0  0  0  0  0  0  0  0  0  0  0  0
  -17.8447   46.8114  -21.9720 C   0  0  0  0  0  0  0  0  0  0  0  0
  -17.3189   46.3840  -23.3200 C   0  0  0  0  0  0  0  0  0  0  0  0
  -15.8268   46.3605  -23.2173 C   0  0  0  0  0  0  0  0  0  0  0  0
  -16.2485   44.0880  -21.6809 C   0  0  0  0  0  0  0  0  0  0  0  0
  -17.0415   40.4438  -21.4023 N   0  0  0  0  0  0  0  0  0  0  0  0
  -19.3486   37.8368  -22.8100 C   0  0  0  0  0  0  0  0  0  0  0  0
  -19.6520   36.5041  -22.8312 C   0  0  0  0  0  0  0  0  0  0  0  0
  -20.8579   36.0079  -23.5910 C   0  0  0  0  0  0  0  0  0  0  0  0
  -18.8403   35.5732  -22.1641 C   0  0  0  0  0  0  0  0  0  0  0  0
  -19.1265   34.2803  -22.1808 O   0  0  0  0  0  0  0  0  0  0  0  0
  -20.0356   33.4116  -21.6799 C   0  0  0  0  0  0  0  0  0  0  0  0
  -20.0421   31.9986  -22.2026 C   0  0  1  0  0  0  0  0  0  0  0  0
  -18.9800   31.3545  -21.5041 O   0  0  0  0  0  0  0  0  0  0  0  0
  -21.2645   31.2065  -21.8291 C   0  0  0  0  0  0  0  0  0  0  0  0
  -22.3808   32.0389  -21.8534 O   0  0  0  0  0  0  0  0  0  0  0  0
  1  2  1  0
  2  3  1  0
  3  4  2  0
  4  5  1  0
  5  6  1  0
  6  7  2  0
  7  8  1  0
  8  9  1  0
  9 10  1  0
 10 11  2  0
 11 12  1  0
 12 13  1  0
 13 14  1  0
 12 15  2  0
 15 16  1  0
 16 17  1  0
 17 18  1  0
 18 19  1  0
 19 20  1  0
 20 21  1  0
 16 22  2  0
  9 23  2  0
  5 24  2  0
 24 25  1  0
 25 26  1  0
 25 27  2  0
 27 28  1  0
 28 29  1  0
 29 30  1  0
 30 31  1  1
 30 32  1  0
 32 33  1  0
 27  3  1  0
 23  6  1  0
 22 10  1  0
 21 17  1  0
M  END
$$$$
