
     RDKit          3D

 29 33  0  0  0  0  0  0  0  0999 V2000
  -19.3986   37.4418  -27.2914 C   0  0  0  0  0  0  0  0  0  0  0  0
  -20.4183   38.1709  -26.4507 C   0  0  2  0  0  0  0  0  0  0  0  0
  -21.3273   38.9371  -27.3971 C   0  0  0  0  0  0  0  0  0  0  0  0
  -22.0467   39.9150  -26.7630 O   0  0  0  0  0  0  0  0  0  0  0  0
  -21.3291   40.8938  -26.1320 C   0  0  0  0  0  0  0  0  0  0  0  0
  -19.8643   40.5374  -26.0051 C   0  0  0  0  0  0  0  0  0  0  0  0
  -19.8023   39.1523  -25.6011 N   0  0  0  0  0  0  0  0  0  0  0  0
  -19.1286   38.8389  -24.3739 C   0  0  0  0  0  0  0  0  0  0  0  0
  -18.9631   37.5330  -23.9645 C   0  0  0  0  0  0  0  0  0  0  0  0
  -18.3122   37.2184  -22.7783 C   0  0  0  0  0  0  0  0  0  0  0  0
  -18.1758   35.8007  -22.3824 C   0  0  0  0  0  0  0  0  0  0  0  0
  -19.2198   34.6116  -23.2123 S   0  0  2  0  0  6  0  0  0  0  0  0
  -20.9251   34.9895  -22.8627 C   0  0  0  0  0  0  0  0  0  0  0  0
  -18.8773   33.1647  -22.8362 N   0  0  0  0  0  0  0  0  0  0  0  0
  -19.0620   34.8681  -24.7018 O   0  0  0  0  0  0  0  0  0  0  0  0
  -16.9004   35.2886  -21.8632 C   0  0  0  0  0  0  0  0  0  0  0  0
  -18.0515   35.5256  -20.8883 C   0  0  0  0  0  0  0  0  0  0  0  0
  -17.8568   38.2629  -22.0584 N   0  0  0  0  0  0  0  0  0  0  0  0
  -17.9865   39.5477  -22.4017 C   0  0  0  0  0  0  0  0  0  0  0  0
  -17.5118   40.6819  -21.6183 C   0  0  0  0  0  0  0  0  0  0  0  0
  -17.0865   40.5327  -20.3143 C   0  0  0  0  0  0  0  0  0  0  0  0
  -16.6307   41.6049  -19.5790 C   0  0  0  0  0  0  0  0  0  0  0  0
  -16.5852   42.8467  -20.1161 N   0  0  0  0  0  0  0  0  0  0  0  0
  -16.9935   43.0297  -21.3907 C   0  0  0  0  0  0  0  0  0  0  0  0
  -17.0456   44.1325  -22.1548 N   0  0  0  0  0  0  0  0  0  0  0  0
  -17.5181   43.8401  -23.3744 C   0  0  0  0  0  0  0  0  0  0  0  0
  -17.7748   42.4743  -23.3669 C   0  0  0  0  0  0  0  0  0  0  0  0
  -17.4582   41.9416  -22.1433 C   0  0  0  0  0  0  0  0  0  0  0  0
  -18.6384   39.7939  -23.5849 N   0  0  0  0  0  0  0  0  0  0  0  0
  2  1  1  6
  2  3  1  0
  3  4  1  0
  4  5  1  0
  5  6  1  0
  6  7  1  0
  7  8  1  0
  8  9  2  0
  9 10  1  0
 10 11  1  0
 11 12  1  0
 12 13  1  1
 12 14  2  0
 12 15  2  0
 11 16  1  0
 16 17  1  0
 10 18  2  0
 18 19  1  0
 19 20  1  0
 20 21  2  0
 21 22  1  0
 22 23  2  0
 23 24  1  0
 24 25  1  0
 25 26  1  0
 26 27  2  0
 27 28  1  0
 19 29  2  0
  7  2  1  0
 29  8  1  0
 17 11  1  0
 28 20  1  0
 28 24  2  0
M  END
$$$$
