
     RDKit          3D

 21 23  0  0  0  0  0  0  0  0999 V2000
  -21.3091   33.1017  -21.5115 O   0  0  0  0  0  0  0  0  0  0  0  0
  -20.5818   34.0524  -21.1255 C   0  0  0  0  0  0  0  0  0  0  0  0
  -20.4458   34.3522  -19.7774 O   0  0  0  0  0  0  0  0  0  0  0  0
  -19.8596   34.8657  -22.1101 C   0  0  0  0  0  0  0  0  0  0  0  0
  -20.1229   34.7740  -23.4601 C   0  0  0  0  0  0  0  0  0  0  0  0
  -19.4449   35.5366  -24.3766 C   0  0  0  0  0  0  0  0  0  0  0  0
  -18.4670   36.4237  -23.9221 C   0  0  0  0  0  0  0  0  0  0  0  0
  -18.1847   36.5349  -22.5823 C   0  0  0  0  0  0  0  0  0  0  0  0
  -16.9695   37.6424  -22.0612 S   0  0  0  0  0  6  0  0  0  0  0  0
  -15.6463   37.3544  -22.7573 O   0  0  0  0  0  0  0  0  0  0  0  0
  -16.7242   37.5255  -20.6050 O   0  0  0  0  0  0  0  0  0  0  0  0
  -17.3734   39.2808  -22.5100 N   0  0  0  0  0  0  0  0  0  0  0  0
  -17.0576   39.8979  -23.7770 C   0  0  0  0  0  0  0  0  0  0  0  0
  -17.0610   41.3853  -23.5198 C   0  0  0  0  0  0  0  0  0  0  0  0
  -17.9077   41.5138  -22.2856 C   0  0  0  0  0  0  0  0  0  0  0  0
  -18.4837   42.6295  -21.7110 C   0  0  0  0  0  0  0  0  0  0  0  0
  -19.2283   42.4813  -20.5582 C   0  0  0  0  0  0  0  0  0  0  0  0
  -19.3678   41.2165  -20.0236 C   0  0  0  0  0  0  0  0  0  0  0  0
  -18.8002   40.0904  -20.5831 C   0  0  0  0  0  0  0  0  0  0  0  0
  -18.0558   40.2561  -21.7399 C   0  0  0  0  0  0  0  0  0  0  0  0
  -18.8791   35.7593  -21.6889 C   0  0  0  0  0  0  0  0  0  0  0  0
  1  2  2  0
  2  3  1  0
  2  4  1  0
  4  5  2  0
  5  6  1  0
  6  7  2  0
  7  8  1  0
  8  9  1  0
  9 10  2  0
  9 11  2  0
  9 12  1  0
 12 13  1  0
 13 14  1  0
 14 15  1  0
 15 16  2  0
 16 17  1  0
 17 18  2  0
 18 19  1  0
 19 20  2  0
  8 21  2  0
 21  4  1  0
 20 12  1  0
 20 15  1  0
M  END
$$$$
