
     RDKit          3D

 27 30  0  0  0  0  0  0  0  0999 V2000
  -18.6631   42.0429  -25.2788 C   0  0  0  0  0  0  0  0  0  0  0  0
  -18.8064   42.0665  -23.7493 C   0  0  2  0  0  0  0  0  0  0  0  0
  -17.8992   43.0375  -23.1417 C   0  0  0  0  0  0  0  0  0  0  0  0
  -17.4328   42.7914  -21.7998 N   0  0  0  0  0  0  0  0  0  0  0  0
  -17.0098   43.8625  -20.9630 C   0  0  0  0  0  0  0  0  0  0  0  0
  -17.8582   44.6200  -20.1778 C   0  0  0  0  0  0  0  0  0  0  0  0
  -17.4206   45.6331  -19.3407 C   0  0  0  0  0  0  0  0  0  0  0  0
  -16.0875   45.8921  -19.2927 C   0  0  0  0  0  0  0  0  0  0  0  0
  -15.2388   45.1926  -20.0269 N   0  0  0  0  0  0  0  0  0  0  0  0
  -15.6791   44.1878  -20.8554 C   0  0  0  0  0  0  0  0  0  0  0  0
  -14.7436   43.5071  -21.5525 F   0  0  0  0  0  0  0  0  0  0  0  0
  -17.4648   41.4363  -21.3740 C   0  0  0  0  0  0  0  0  0  0  0  0
  -16.8735   41.0957  -20.3075 O   0  0  0  0  0  0  0  0  0  0  0  0
  -18.1620   40.4092  -22.1337 C   0  0  0  0  0  0  0  0  0  0  0  0
  -18.3223   39.0313  -21.9116 C   0  0  0  0  0  0  0  0  0  0  0  0
  -19.0731   38.5830  -22.9660 C   0  0  0  0  0  0  0  0  0  0  0  0
  -19.5101   37.1997  -23.1886 C   0  0  0  0  0  0  0  0  0  0  0  0
  -19.6986   36.4650  -22.0203 O   0  0  0  0  0  0  0  0  0  0  0  0
  -18.8918   35.3573  -21.8002 C   0  0  0  0  0  0  0  0  0  0  0  0
  -17.9461   34.9382  -22.7244 C   0  0  0  0  0  0  0  0  0  0  0  0
  -17.1437   33.8384  -22.5081 C   0  0  0  0  0  0  0  0  0  0  0  0
  -17.2554   33.1059  -21.3476 C   0  0  0  0  0  0  0  0  0  0  0  0
  -16.2685   31.6994  -21.0093 Cl  0  0  0  0  0  0  0  0  0  0  0  0
  -18.2128   33.5472  -20.4347 C   0  0  0  0  0  0  0  0  0  0  0  0
  -18.9810   34.6250  -20.6753 N   0  0  0  0  0  0  0  0  0  0  0  0
  -19.3594   39.6053  -23.7841 N   0  0  0  0  0  0  0  0  0  0  0  0
  -18.7912   40.7193  -23.2562 N   0  0  0  0  0  0  0  0  0  0  0  0
  2  1  1  6
  2  3  1  0
  3  4  1  0
  4  5  1  0
  5  6  2  0
  6  7  1  0
  7  8  2  0
  8  9  1  0
  9 10  2  0
 10 11  1  0
  4 12  1  0
 12 13  2  0
 12 14  1  0
 14 15  2  0
 15 16  1  0
 16 17  1  0
 17 18  1  0
 18 19  1  0
 19 20  2  0
 20 21  1  0
 21 22  2  0
 22 23  1  0
 22 24  1  0
 24 25  2  0
 16 26  2  0
 26 27  1  0
 27  2  1  0
 10  5  1  0
 27 14  1  0
 25 19  1  0
M  END
$$$$
