
     RDKit          3D

 27 28  0  0  0  0  0  0  0  0999 V2000
  -15.0936   43.1370  -20.7209 C   0  0  0  0  0  0  0  0  0  0  0  0
  -16.0532   43.0802  -21.7746 O   0  0  0  0  0  0  0  0  0  0  0  0
  -17.1888   42.2988  -21.5557 C   0  0  0  0  0  0  0  0  0  0  0  0
  -17.3928   41.6087  -20.3836 C   0  0  0  0  0  0  0  0  0  0  0  0
  -18.5213   40.8609  -20.2261 C   0  0  0  0  0  0  0  0  0  0  0  0
  -19.4444   40.7801  -21.1932 N   0  0  0  0  0  0  0  0  0  0  0  0
  -19.2876   41.4423  -22.3667 C   0  0  0  0  0  0  0  0  0  0  0  0
  -20.3406   41.2749  -23.3797 C   0  0  0  0  0  0  0  0  0  0  0  0
  -19.7060   40.1046  -24.6240 S   0  0  0  0  0  4  0  0  0  0  0  0
  -20.8589   39.8817  -25.6090 O   0  0  0  0  0  0  0  0  0  0  0  0
  -19.3596   38.5800  -23.7527 C   0  0  0  0  0  0  0  0  0  0  0  0
  -18.1723   38.2420  -23.1786 N   0  0  0  0  0  0  0  0  0  0  0  0
  -18.2775   37.0335  -22.6113 C   0  0  0  0  0  0  0  0  0  0  0  0
  -17.4197   36.2168  -21.9078 C   0  0  0  0  0  0  0  0  0  0  0  0
  -17.8248   34.9846  -21.4281 C   0  0  0  0  0  0  0  0  0  0  0  0
  -19.1183   34.5098  -21.6326 C   0  0  0  0  0  0  0  0  0  0  0  0
  -19.4456   33.2788  -21.1258 O   0  0  0  0  0  0  0  0  0  0  0  0
  -20.6555   32.6052  -21.1993 C   0  0  0  0  0  0  0  0  0  0  0  0
  -20.4685   31.4275  -21.8990 F   0  0  0  0  0  0  0  0  0  0  0  0
  -21.2201   32.3553  -19.9614 F   0  0  0  0  0  0  0  0  0  0  0  0
  -19.9697   35.3296  -22.3360 C   0  0  0  0  0  0  0  0  0  0  0  0
  -19.5569   36.5677  -22.8155 C   0  0  0  0  0  0  0  0  0  0  0  0
  -20.1788   37.5464  -23.5166 N   0  0  0  0  0  2  0  0  0  0  0  0
  -18.1700   42.1970  -22.5486 C   0  0  0  0  0  0  0  0  0  0  0  0
  -17.9843   42.8867  -23.7399 O   0  0  0  0  0  0  0  0  0  0  0  0
  -18.4326   44.2351  -23.8626 C   0  0  0  0  0  0  0  0  0  0  0  0
  -18.5682   39.2402  -22.2436 Na  0  0  0  0  0 15  0  0  0  0  0  0
  1  2  1  0
  2  3  1  0
  3  4  2  0
  4  5  1  0
  5  6  2  0
  6  7  1  0
  7  8  1  0
  8  9  1  0
  9 10  2  0
  9 11  1  0
 11 12  2  0
 12 13  1  0
 13 14  2  0
 14 15  1  0
 15 16  2  0
 16 17  1  0
 17 18  1  0
 18 19  1  0
 18 20  1  0
 16 21  1  0
 21 22  2  0
 22 23  1  0
  7 24  2  0
 24 25  1  0
 25 26  1  0
 24  3  1  0
 23 11  1  0
 22 13  1  0
M  CHG  2  23  -1  27   1
M  END
$$$$
