
     RDKit          3D

 28 30  0  0  0  0  0  0  0  0999 V2000
  -28.4786   22.4698  -27.0172 N   0  0  0  0  0  0  0  0  0  0  0  0
  -28.8893   21.2239  -27.6119 C   0  0  0  0  0  0  0  0  0  0  0  0
  -30.0226   21.1044  -28.0774 O   0  0  0  0  0  0  0  0  0  0  0  0
  -27.8798   20.1556  -27.6096 C   0  0  0  0  0  0  0  0  0  0  0  0
  -26.5582   20.4691  -27.7634 C   0  0  0  0  0  0  0  0  0  0  0  0
  -25.6913   19.4611  -27.7498 N   0  0  0  0  0  0  0  0  0  0  0  0
  -26.0452   18.1795  -27.5961 C   0  0  0  0  0  0  0  0  0  0  0  0
  -25.0936   17.1340  -27.6991 N   0  0  0  0  0  0  0  0  0  0  0  0
  -25.5931   15.8153  -28.0766 C   0  0  0  0  0  0  0  0  0  0  0  0
  -26.4331   15.9023  -29.3208 C   0  0  0  0  0  0  0  0  0  0  0  0
  -25.6022   15.7807  -30.5285 C   0  0  0  0  0  0  0  0  0  0  0  0
  -24.7975   14.6291  -30.7630 C   0  0  0  0  0  0  0  0  0  0  0  0
  -24.0503   14.5470  -31.9145 C   0  0  0  0  0  0  0  0  0  0  0  0
  -23.9996   15.4992  -32.8988 C   0  0  0  0  0  0  0  0  0  0  0  0
  -23.2418   15.4165  -34.0526 O   0  0  0  0  0  0  0  0  0  0  0  0
  -24.7975   16.6418  -32.6702 C   0  0  0  0  0  0  0  0  0  0  0  0
  -24.7567   17.8700  -33.9016 Cl  0  0  0  0  0  0  0  0  0  0  0  0
  -25.5321   16.7114  -31.5299 C   0  0  0  0  0  0  0  0  0  0  0  0
  -27.3450   17.8759  -27.4416 N   0  0  0  0  0  0  0  0  0  0  0  0
  -28.3268   18.8272  -27.4413 C   0  0  0  0  0  0  0  0  0  0  0  0
  -29.7058   18.5884  -27.4910 N   0  0  0  0  0  0  0  0  0  0  0  0
  -31.0309   18.3589  -27.5388 C   0  0  0  0  0  0  0  0  0  0  0  0
  -31.5929   17.4971  -26.4471 C   0  0  0  0  0  0  0  0  0  0  0  0
  -32.1905   18.1526  -25.3710 C   0  0  0  0  0  0  0  0  0  0  0  0
  -32.7073   17.4679  -24.2859 C   0  0  0  0  0  0  0  0  0  0  0  0
  -32.6166   16.1038  -24.2964 C   0  0  0  0  0  0  0  0  0  0  0  0
  -32.0331   15.4465  -25.3512 C   0  0  0  0  0  0  0  0  0  0  0  0
  -31.5173   16.1353  -26.4322 C   0  0  0  0  0  0  0  0  0  0  0  0
  1  2  1  0
  2  3  2  0
  2  4  1  0
  4  5  2  0
  5  6  1  0
  6  7  2  0
  7  8  1  0
  8  9  1  0
  9 10  1  0
 10 11  1  0
 11 12  2  0
 12 13  1  0
 13 14  2  0
 14 15  1  0
 14 16  1  0
 16 17  1  0
 16 18  2  0
  7 19  1  0
 19 20  2  0
 20 21  1  0
 21 22  1  0
 22 23  1  0
 23 24  2  0
 24 25  1  0
 25 26  2  0
 26 27  1  0
 27 28  2  0
 20  4  1  0
 28 23  1  0
 18 11  1  0
M  END
$$$$
