
     RDKit          3D

 23 23  0  0  0  0  0  0  0  0999 V2000
  -18.8993   44.8967  -24.4016 C   0  0  0  0  0  0  0  0  0  0  0  0
  -18.6513   43.8103  -23.4389 C   0  0  0  0  0  0  0  0  0  0  0  0
  -17.4961   43.8477  -22.6490 C   0  0  0  0  0  0  0  0  0  0  0  0
  -17.2467   42.8460  -21.7467 C   0  0  0  0  0  0  0  0  0  0  0  0
  -16.0850   42.8477  -20.9264 N   0  0  0  0  0  0  0  0  0  0  0  0
  -14.9672   42.1288  -21.1220 C   0  0  0  0  0  0  0  0  0  0  0  0
  -14.0556   42.4021  -20.1052 C   0  0  0  0  0  0  0  0  0  0  0  0
  -14.6460   43.3076  -19.2826 C   0  0  0  0  0  0  0  0  0  0  0  0
  -15.8929   43.5624  -19.8128 C   0  0  0  0  0  0  0  0  0  0  0  0
  -18.1589   41.8098  -21.6406 C   0  0  0  0  0  0  0  0  0  0  0  0
  -17.8852   40.5163  -20.5098 S   0  0  0  0  0  6  0  0  0  0  0  0
  -19.2231   39.3513  -20.6133 C   0  0  0  0  0  0  0  0  0  0  0  0
  -16.6246   39.7368  -20.8618 O   0  0  0  0  0  0  0  0  0  0  0  0
  -17.6881   41.0051  -19.1080 O   0  0  0  0  0  0  0  0  0  0  0  0
  -19.2839   41.7880  -22.4202 C   0  0  0  0  0  0  0  0  0  0  0  0
  -19.5513   42.7789  -23.3276 C   0  0  0  0  0  0  0  0  0  0  0  0
  -20.7382   42.7607  -24.1539 C   0  0  0  0  0  0  0  0  0  0  0  0
  -21.7991   43.2852  -23.7023 O   0  0  0  0  0  0  0  0  0  0  0  0
  -20.7978   42.1941  -25.4405 N   0  0  0  0  0  0  0  0  0  0  0  0
  -21.9844   42.1849  -26.2468 C   0  0  0  0  0  0  0  0  0  0  0  0
  -23.0511   42.7212  -25.7738 N   0  0  0  0  0  0  0  0  0  0  0  0
  -21.9922   41.6034  -27.5302 N   0  0  0  0  0  0  0  0  0  0  0  0
  -18.9483   42.4300  -23.2922 Cl  0  0  0  0  0  0  0  0  0  0  0  0
  1  2  1  0
  2  3  2  0
  3  4  1  0
  4  5  1  0
  5  6  1  0
  6  7  2  0
  7  8  1  0
  8  9  2  0
  4 10  2  0
 10 11  1  0
 11 12  1  0
 11 13  2  0
 11 14  2  0
 10 15  1  0
 15 16  2  0
 16 17  1  0
 17 18  2  0
 17 19  1  0
 19 20  1  0
 20 21  2  0
 20 22  1  0
 16  2  1  0
  9  5  1  0
M  END
$$$$
