
     RDKit          3D

 31 35  0  0  0  0  0  0  0  0999 V2000
  -15.5210   -7.1055  -28.4745 C   0  0  0  0  0  0  0  0  0  0  0  0
  -16.5651   -6.4143  -29.2751 C   0  0  0  0  0  0  0  0  0  0  0  0
  -17.1490   -6.9943  -30.2173 O   0  0  0  0  0  0  0  0  0  0  0  0
  -16.9135   -5.1077  -28.9917 O   0  0  0  0  0  0  0  0  0  0  0  0
  -16.7196   -4.0490  -29.8337 C   0  0  0  0  0  0  0  0  0  0  0  0
  -17.8122   -3.4134  -30.3857 C   0  0  0  0  0  0  0  0  0  0  0  0
  -17.6115   -2.3526  -31.2291 C   0  0  0  0  0  0  0  0  0  0  0  0
  -16.3477   -1.8605  -31.5751 C   0  0  0  0  0  0  0  0  0  0  0  0
  -15.2816   -2.4855  -31.0326 C   0  0  0  0  0  0  0  0  0  0  0  0
  -15.4662   -3.5794  -30.1620 C   0  0  0  0  0  0  0  0  0  0  0  0
  -13.9962   -2.0688  -31.3174 O   0  0  0  0  0  0  0  0  0  0  0  0
  -13.7993   -0.9951  -32.1712 C   0  0  0  0  0  0  0  0  0  0  0  0
  -12.4987   -0.5876  -32.4480 C   0  0  0  0  0  0  0  0  0  0  0  0
  -12.1778    0.4572  -33.2740 C   0  0  0  0  0  0  0  0  0  0  0  0
  -10.8547    0.8076  -33.5041 O   0  0  0  0  0  0  0  0  0  0  0  0
  -10.0342    0.1564  -34.3898 C   0  0  0  0  0  0  0  0  0  0  0  0
   -8.5777   -0.0503  -34.1932 C   0  0  0  0  0  0  0  0  0  0  0  0
  -10.5464   -0.2996  -35.4440 O   0  0  0  0  0  0  0  0  0  0  0  0
  -13.2474    1.1281  -33.8535 C   0  0  0  0  0  0  0  0  0  0  0  0
  -14.5451    0.7489  -33.5992 C   0  0  0  0  0  0  0  0  0  0  0  0
  -14.8430   -0.3230  -32.7507 C   0  0  0  0  0  0  0  0  0  0  0  0
  -16.2325   -0.7157  -32.4892 C   0  0  0  0  0  0  0  0  0  0  0  0
  -16.8868    0.4132  -31.9168 O   0  0  0  0  0  0  0  0  0  0  0  0
  -17.9291    0.8535  -32.7075 C   0  0  0  0  0  0  0  0  0  0  0  0
  -18.6568    1.8334  -32.4164 O   0  0  0  0  0  0  0  0  0  0  0  0
  -17.9701   -0.0217  -33.8576 C   0  0  0  0  0  0  0  0  0  0  0  0
  -18.8354    0.0019  -34.9430 C   0  0  0  0  0  0  0  0  0  0  0  0
  -18.7000   -0.9337  -35.9417 C   0  0  0  0  0  0  0  0  0  0  0  0
  -17.7016   -1.8678  -35.8267 C   0  0  0  0  0  0  0  0  0  0  0  0
  -16.8420   -1.8873  -34.7436 C   0  0  0  0  0  0  0  0  0  0  0  0
  -16.9845   -0.9563  -33.7598 C   0  0  0  0  0  0  0  0  0  0  0  0
  1  2  1  0
  2  3  2  0
  2  4  1  0
  4  5  1  0
  5  6  2  0
  6  7  1  0
  7  8  2  0
  8  9  1  0
  9 10  2  0
  9 11  1  0
 11 12  1  0
 12 13  2  0
 13 14  1  0
 14 15  1  0
 15 16  1  0
 16 17  1  0
 16 18  2  0
 14 19  2  0
 19 20  1  0
 20 21  2  0
 21 22  1  0
 22 23  1  0
 23 24  1  0
 24 25  2  0
 24 26  1  0
 26 27  2  0
 27 28  1  0
 28 29  2  0
 29 30  1  0
 30 31  2  0
 10  5  1  0
 21 12  1  0
 31 22  1  0
 22  8  1  0
 31 26  1  0
M  END
$$$$
