
     RDKit          3D

 42 45  0  0  0  0  0  0  0  0999 V2000
  -22.1126   26.3634  -34.7112 C   0  0  0  0  0  0  0  0  0  0  0  0
  -23.5059   25.8226  -34.6914 C   0  0  0  0  0  0  0  0  0  0  0  0
  -24.0345   25.9808  -33.2429 C   0  0  0  0  0  0  0  0  0  0  0  0
  -24.3701   26.8177  -35.4842 C   0  0  0  0  0  0  0  0  0  0  0  0
  -23.6425   24.1478  -35.2272 S   0  0  0  0  0  0  0  0  0  0  0  0
  -23.1830   23.8297  -36.8973 C   0  0  0  0  0  0  0  0  0  0  0  0
  -22.0329   23.3098  -37.4250 C   0  0  0  0  0  0  0  0  0  0  0  0
  -20.8393   22.7012  -36.8806 C   0  0  0  0  0  0  0  0  0  0  0  0
  -19.7308   23.4120  -36.2332 C   0  0  0  0  0  0  0  0  0  0  0  0
  -18.6398   22.2677  -35.9379 C   0  0  0  0  0  0  0  0  0  0  0  0
  -19.9359   23.9138  -34.8262 C   0  0  0  0  0  0  0  0  0  0  0  0
  -19.0472   24.4492  -37.0208 C   0  0  0  0  0  0  0  0  0  0  0  0
  -19.0971   25.6491  -36.5794 O   0  0  0  0  0  0  0  0  0  0  0  0
  -18.3519   24.2268  -38.2032 O   0  0  0  0  0  1  0  0  0  0  0  0
  -22.1932   23.3678  -38.8071 N   0  0  0  0  0  0  0  0  0  0  0  0
  -21.3188   22.8497  -39.8199 C   0  0  0  0  0  0  0  0  0  0  0  0
  -21.7368   21.5577  -40.4143 C   0  0  0  0  0  0  0  0  0  0  0  0
  -22.1115   21.5051  -41.7700 C   0  0  0  0  0  0  0  0  0  0  0  0
  -22.5279   20.3523  -42.3899 C   0  0  0  0  0  0  0  0  0  0  0  0
  -22.5647   19.2200  -41.6104 C   0  0  0  0  0  0  0  0  0  0  0  0
  -23.0886   17.7188  -42.3570 Cl  0  0  0  0  0  0  0  0  0  0  0  0
  -22.2117   19.2244  -40.2972 C   0  0  0  0  0  0  0  0  0  0  0  0
  -21.7908   20.4136  -39.6895 C   0  0  0  0  0  0  0  0  0  0  0  0
  -23.3876   23.8997  -39.0988 C   0  0  0  0  0  0  0  0  0  0  0  0
  -24.0309   24.1654  -40.3145 C   0  0  0  0  0  0  0  0  0  0  0  0
  -25.2907   24.7120  -40.3531 C   0  0  0  0  0  0  0  0  0  0  0  0
  -25.9534   25.0126  -39.2114 C   0  0  0  0  0  0  0  0  0  0  0  0
  -27.2207   25.5611  -39.1508 O   0  0  0  0  0  0  0  0  0  0  0  0
  -28.0260   25.8942  -40.2301 C   0  0  0  0  0  0  0  0  0  0  0  0
  -29.3092   26.4500  -39.7282 C   0  0  0  0  0  0  0  0  0  0  0  0
  -29.4859   26.6035  -38.3776 C   0  0  0  0  0  0  0  0  0  0  0  0
  -30.6742   27.1159  -37.9065 C   0  0  0  0  0  0  0  0  0  0  0  0
  -31.6613   27.4641  -38.8151 C   0  0  0  0  0  0  0  0  0  0  0  0
  -32.8688   27.9826  -38.3493 C   0  0  0  0  0  0  0  0  0  0  0  0
  -33.8195   28.3131  -39.2775 C   0  0  0  0  0  0  0  0  0  0  0  0
  -33.5749   28.1326  -40.6253 C   0  0  0  0  0  0  0  0  0  0  0  0
  -32.3825   27.6202  -41.0860 C   0  0  0  0  0  0  0  0  0  0  0  0
  -31.4204   27.2863  -40.1414 C   0  0  0  0  0  0  0  0  0  0  0  0
  -30.2678   26.7873  -40.6228 N   0  0  0  0  0  0  0  0  0  0  0  0
  -25.3157   24.7510  -38.0075 C   0  0  0  0  0  0  0  0  0  0  0  0
  -24.0541   24.2056  -37.9511 C   0  0  0  0  0  0  0  0  0  0  0  0
  -24.5309   24.5623  -38.0626 Na  0  0  0  0  0 15  0  0  0  0  0  0
  1  2  1  0
  2  3  1  0
  2  4  1  0
  2  5  1  0
  5  6  1  0
  6  7  2  0
  7  8  1  0
  8  9  1  0
  9 10  1  0
  9 11  1  0
  9 12  1  0
 12 13  2  0
 12 14  1  0
  7 15  1  0
 15 16  1  0
 16 17  1  0
 17 18  2  0
 18 19  1  0
 19 20  2  0
 20 21  1  0
 20 22  1  0
 22 23  2  0
 15 24  1  0
 24 25  2  0
 25 26  1  0
 26 27  2  0
 27 28  1  0
 28 29  1  0
 29 30  1  0
 30 31  2  0
 31 32  1  0
 32 33  2  0
 33 34  1  0
 34 35  2  0
 35 36  1  0
 36 37  2  0
 37 38  1  0
 38 39  2  0
 27 40  1  0
 40 41  2  0
 41  6  1  0
 23 17  1  0
 41 24  1  0
 39 30  1  0
 38 33  1  0
M  CHG  2  14  -1  42   1
M  END
$$$$
