
     RDKit          3D

 21 23  0  0  0  0  0  0  0  0999 V2000
  -14.6266   15.3429  -35.2138 C   0  0  0  0  0  0  0  0  0  0  0  0
  -14.8918   16.6505  -34.5047 C   0  0  0  0  0  0  0  0  0  0  0  0
  -14.9259   16.3619  -33.0090 C   0  0  0  0  0  0  0  0  0  0  0  0
  -13.8361   17.6947  -34.7917 C   0  0  0  0  0  0  0  0  0  0  0  0
  -14.1480   18.4547  -36.0126 C   0  0  0  0  0  0  0  0  0  0  0  0
  -13.5600   19.4984  -36.3447 O   0  0  0  0  0  0  0  0  0  0  0  0
  -15.2180   17.9737  -36.9171 C   0  0  0  0  0  0  0  0  0  0  0  0
  -16.2363   17.3412  -36.3924 C   0  0  0  0  0  0  0  0  0  0  0  0
  -16.2477   17.1393  -34.8976 C   0  0  0  0  0  0  0  0  0  0  0  0
  -17.3885   16.8794  -37.1175 N   0  0  0  0  0  0  0  0  0  0  0  0
  -17.3585   17.1726  -38.5061 C   0  0  0  0  0  0  0  0  0  0  0  0
  -18.5880   16.7136  -39.4778 S   0  0  0  0  0  0  0  0  0  0  0  0
  -16.2770   17.8640  -39.0910 N   0  0  0  0  0  0  0  0  0  0  0  0
  -15.1070   18.1985  -38.3583 C   0  0  0  0  0  0  0  0  0  0  0  0
  -13.8804   17.6747  -38.9945 C   0  0  0  0  0  0  0  0  0  0  0  0
  -13.3342   18.3797  -40.0463 C   0  0  0  0  0  0  0  0  0  0  0  0
  -12.1806   17.9133  -40.6878 C   0  0  0  0  0  0  0  0  0  0  0  0
  -11.5950   16.7371  -40.2542 C   0  0  0  0  0  0  0  0  0  0  0  0
  -12.1325   16.0259  -39.2053 C   0  0  0  0  0  0  0  0  0  0  0  0
  -11.5104   14.8559  -38.8089 O   0  0  0  0  0  0  0  0  0  0  0  0
  -13.2823   16.5200  -38.5899 C   0  0  0  0  0  0  0  0  0  0  0  0
  1  2  1  0
  2  3  1  0
  2  4  1  0
  4  5  1  0
  5  6  2  0
  5  7  1  0
  7  8  2  0
  8  9  1  0
  8 10  1  0
 10 11  1  0
 11 12  2  0
 11 13  1  0
 13 14  1  0
 14 15  1  0
 15 16  2  0
 16 17  1  0
 17 18  2  0
 18 19  1  0
 19 20  1  0
 19 21  2  0
  9  2  1  0
 21 15  1  0
 14  7  1  0
M  END
$$$$
