
     RDKit          3D

 35 39  0  0  0  0  0  0  0  0999 V2000
  -17.0294   40.1629  -20.4445 C   0  0  0  0  0  0  0  0  0  0  0  0
  -17.7806   40.1920  -21.7825 C   0  0  0  0  0  0  0  0  0  0  0  0
  -17.8347   41.3889  -22.4401 C   0  0  0  0  0  0  0  0  0  0  0  0
  -17.3107   42.7079  -22.1383 C   0  0  0  0  0  0  0  0  0  0  0  0
  -17.6380   43.6161  -23.2160 N   0  0  0  0  0  0  0  0  0  0  0  0
  -19.0589   43.7837  -23.4080 C   0  0  0  0  0  0  0  0  0  0  0  0
  -19.7578   44.3218  -22.1708 C   0  0  0  0  0  0  0  0  0  0  0  0
  -19.0985   45.5412  -21.8084 N   0  0  0  0  0  0  0  0  0  0  0  0
  -19.8623   46.6897  -21.4963 C   0  0  0  0  0  0  0  0  0  0  0  0
  -19.8077   47.1058  -20.2872 O   0  0  0  0  0  0  0  0  0  0  0  0
  -20.7059   47.4187  -22.4830 C   0  0  2  0  0  0  0  0  0  0  0  0
  -22.1764   47.1936  -22.1980 C   0  0  0  0  0  0  0  0  0  0  0  0
  -20.4615   46.8620  -23.7473 O   0  0  0  0  0  0  0  0  0  0  0  0
  -17.6383   45.5877  -21.7684 C   0  0  0  0  0  0  0  0  0  0  0  0
  -17.0563   44.9284  -23.0124 C   0  0  0  0  0  0  0  0  0  0  0  0
  -18.8011   40.9405  -23.9303 S   0  0  0  0  0  0  0  0  0  0  0  0
  -19.0193   39.2345  -23.5131 C   0  0  0  0  0  0  0  0  0  0  0  0
  -19.6728   38.2110  -24.1847 C   0  0  0  0  0  0  0  0  0  0  0  0
  -20.2941   38.4992  -25.4125 N   0  0  0  0  0  0  0  0  0  0  0  0
  -19.8655   39.6102  -26.2152 C   0  0  0  0  0  0  0  0  0  0  0  0
  -20.3162   39.3337  -27.6392 C   0  0  0  0  0  0  0  0  0  0  0  0
  -20.2327   38.0103  -27.9743 O   0  0  0  0  0  0  0  0  0  0  0  0
  -20.9658   37.1279  -27.2375 C   0  0  0  0  0  0  0  0  0  0  0  0
  -21.3725   37.6878  -25.8945 C   0  0  0  0  0  0  0  0  0  0  0  0
  -19.6861   36.9759  -23.6304 N   0  0  0  0  0  0  0  0  0  0  0  0
  -19.0499   36.8546  -22.4539 C   0  0  0  0  0  0  0  0  0  0  0  0
  -19.0532   35.5153  -21.8373 C   0  0  0  0  0  0  0  0  0  0  0  0
  -18.4101   35.2682  -20.6517 C   0  0  0  0  0  0  0  0  0  0  0  0
  -18.4463   34.0194  -20.1344 N   0  0  0  0  0  0  0  0  0  0  0  0
  -19.0951   33.0224  -20.7542 C   0  0  0  0  0  0  0  0  0  0  0  0
  -19.1400   31.7035  -20.2192 N   0  0  0  0  0  0  0  0  0  0  0  0
  -19.7343   33.2368  -21.9181 N   0  0  0  0  0  0  0  0  0  0  0  0
  -19.7057   34.4609  -22.4365 C   0  0  0  0  0  0  0  0  0  0  0  0
  -18.4290   37.8148  -21.8100 N   0  0  0  0  0  0  0  0  0  0  0  0
  -18.3743   39.1148  -22.3216 C   0  0  0  0  0  0  0  0  0  0  0  0
  1  2  1  0
  2  3  2  0
  3  4  1  0
  4  5  1  0
  5  6  1  0
  6  7  1  0
  7  8  1  0
  8  9  1  0
  9 10  2  0
  9 11  1  0
 11 12  1  1
 11 13  1  0
  8 14  1  0
 14 15  1  0
  3 16  1  0
 16 17  1  0
 17 18  2  0
 18 19  1  0
 19 20  1  0
 20 21  1  0
 21 22  1  0
 22 23  1  0
 23 24  1  0
 18 25  1  0
 25 26  2  0
 26 27  1  0
 27 28  2  0
 28 29  1  0
 29 30  2  0
 30 31  1  0
 30 32  1  0
 32 33  2  0
 26 34  1  0
 34 35  2  0
 35  2  1  0
 15  5  1  0
 35 17  1  0
 24 19  1  0
 33 27  1  0
M  END
$$$$
