
     RDKit          3D

 21 23  0  0  0  0  0  0  0  0999 V2000
  -16.9390   44.7076  -22.5456 C   0  0  0  0  0  0  0  0  0  0  0  0
  -17.7409   43.5023  -22.8236 C   0  0  0  0  0  0  0  0  0  0  0  0
  -17.5106   42.2617  -22.3858 N   0  0  0  0  0  0  0  0  0  0  0  0
  -18.4894   41.4398  -22.8677 C   0  0  0  0  0  0  0  0  0  0  0  0
  -18.6671   40.0826  -22.6802 C   0  0  0  0  0  0  0  0  0  0  0  0
  -17.7634   39.3813  -21.9050 O   0  0  0  0  0  0  0  0  0  0  0  0
  -17.1235   38.2547  -22.4795 C   0  0  0  0  0  0  0  0  0  0  0  0
  -17.9877   37.0807  -22.1439 C   0  0  0  0  0  0  0  0  0  0  0  0
  -18.2779   36.8159  -20.8291 C   0  0  0  0  0  0  0  0  0  0  0  0
  -19.0753   35.7502  -20.4412 C   0  0  0  0  0  0  0  0  0  0  0  0
  -19.5883   34.9348  -21.4275 C   0  0  0  0  0  0  0  0  0  0  0  0
  -19.2965   35.1999  -22.7629 C   0  0  0  0  0  0  0  0  0  0  0  0
  -18.5019   36.2661  -23.1090 C   0  0  0  0  0  0  0  0  0  0  0  0
  -19.7573   39.5014  -23.2907 C   0  0  0  0  0  0  0  0  0  0  0  0
  -20.6556   40.2354  -24.0696 C   0  0  0  0  0  0  0  0  0  0  0  0
  -20.4238   41.5854  -24.2189 C   0  0  0  0  0  0  0  0  0  0  0  0
  -19.3526   42.1516  -23.6178 N   0  0  0  0  0  0  0  0  0  0  0  0
  -18.8848   43.4296  -23.5879 C   0  0  0  0  0  0  0  0  0  0  0  0
  -19.5187   44.5799  -24.2845 C   0  0  0  0  0  0  0  0  0  0  0  0
  -18.8789   44.6686  -25.6133 C   0  0  0  0  0  0  0  0  0  0  0  0
  -18.3727   44.7553  -26.6606 N   0  0  0  0  0  0  0  0  0  0  0  0
  1  2  1  0
  2  3  1  0
  3  4  2  0
  4  5  1  0
  5  6  1  0
  6  7  1  0
  7  8  1  0
  8  9  2  0
  9 10  1  0
 10 11  2  0
 11 12  1  0
 12 13  2  0
  5 14  2  0
 14 15  1  0
 15 16  2  0
 16 17  1  0
 17 18  1  0
 18 19  1  0
 19 20  1  0
 20 21  3  0
 18  2  2  0
 17  4  1  0
 13  8  1  0
M  END
$$$$
