
     RDKit          3D

 37 40  0  0  0  0  0  0  0  0999 V2000
  -21.6127   27.3046  -32.4881 C   0  0  0  0  0  0  0  0  0  0  0  0
  -22.5810   26.6787  -33.4262 C   0  0  0  0  0  0  0  0  0  0  0  0
  -22.2972   26.6056  -34.5965 O   0  0  0  0  0  0  0  0  0  0  0  0
  -23.8660   26.1674  -32.8727 C   0  0  2  0  0  0  0  0  0  0  0  0
  -23.9162   26.3884  -31.4927 O   0  0  0  0  0  0  0  0  0  0  0  0
  -23.8600   24.6737  -33.1224 C   0  0  0  0  0  0  0  0  0  0  0  0
  -25.1292   24.1666  -32.5973 C   0  0  0  0  0  0  0  0  0  0  0  0
  -25.2184   23.1766  -31.6970 C   0  0  0  0  0  0  0  0  0  0  0  0
  -24.0886   22.5078  -31.1896 O   0  0  0  0  0  0  0  0  0  0  0  0
  -26.4329   22.7569  -31.2154 C   0  0  0  0  0  0  0  0  0  0  0  0
  -27.6046   23.3510  -31.6515 C   0  0  0  0  0  0  0  0  0  0  0  0
  -27.4790   24.3828  -32.5933 C   0  0  0  0  0  0  0  0  0  0  0  0
  -28.6979   24.9372  -32.9865 O   0  0  0  0  0  0  0  0  0  0  0  0
  -26.2856   24.8110  -33.0820 C   0  0  0  0  0  0  0  0  0  0  0  0
  -26.0935   25.8886  -34.0706 C   0  0  1  0  0  0  0  0  0  0  0  0
  -27.2222   26.5771  -34.3676 O   0  0  0  0  0  0  0  0  0  0  0  0
  -27.4807   26.6038  -35.7655 C   0  0  1  0  0  0  0  0  0  0  0  0
  -28.8053   25.9380  -35.9935 C   0  0  0  0  0  0  0  0  0  0  0  0
  -29.2363   26.1605  -37.4273 C   0  0  2  0  0  0  0  0  0  0  0  0
  -28.4600   25.3694  -38.3525 N   0  0  0  0  0  0  0  0  0  0  0  0
  -29.2139   27.6211  -37.7150 C   0  0  2  0  0  0  0  0  0  0  0  0
  -29.3555   27.7815  -39.1110 O   0  0  0  0  0  0  0  0  0  0  0  0
  -27.9108   28.2820  -37.3347 C   0  0  2  0  0  0  0  0  0  0  0  0
  -26.9284   28.0602  -38.4515 C   0  0  0  0  0  0  0  0  0  0  0  0
  -27.4550   27.9420  -36.0988 O   0  0  0  0  0  0  0  0  0  0  0  0
  -24.9966   26.8214  -33.5627 C   0  0  0  0  0  0  0  0  0  0  0  0
  -28.9043   22.9211  -31.1500 C   0  0  0  0  0  0  0  0  0  0  0  0
  -29.9496   23.4541  -31.5408 O   0  0  0  0  0  0  0  0  0  0  0  0
  -28.9576   21.8479  -30.1751 C   0  0  0  0  0  0  0  0  0  0  0  0
  -30.1876   21.4103  -29.6730 C   0  0  0  0  0  0  0  0  0  0  0  0
  -30.2072   20.3877  -28.7469 C   0  0  0  0  0  0  0  0  0  0  0  0
  -29.0626   19.7693  -28.2868 C   0  0  0  0  0  0  0  0  0  0  0  0
  -27.8568   20.1976  -28.7784 C   0  0  0  0  0  0  0  0  0  0  0  0
  -27.8229   21.2171  -29.7030 C   0  0  0  0  0  0  0  0  0  0  0  0
  -26.5380   21.6692  -30.2229 C   0  0  0  0  0  0  0  0  0  0  0  0
  -25.4896   21.1188  -29.8160 O   0  0  0  0  0  0  0  0  0  0  0  0
  -26.7983   24.5483  -33.0891 Cl  0  0  0  0  0  0  0  0  0  0  0  0
  1  2  1  0
  2  3  2  0
  2  4  1  0
  4  5  1  1
  4  6  1  0
  6  7  1  0
  7  8  2  0
  8  9  1  0
  8 10  1  0
 10 11  2  0
 11 12  1  0
 12 13  1  0
 12 14  2  0
 14 15  1  0
 15 16  1  1
 17 16  1  1
 17 18  1  0
 18 19  1  0
 19 20  1  6
 19 21  1  0
 21 22  1  6
 21 23  1  0
 23 24  1  6
 23 25  1  0
 15 26  1  0
 11 27  1  0
 27 28  2  0
 27 29  1  0
 29 30  2  0
 30 31  1  0
 31 32  2  0
 32 33  1  0
 33 34  2  0
 34 35  1  0
 35 36  2  0
 26  4  1  0
 34 29  1  0
 14  7  1  0
 25 17  1  0
 35 10  1  0
M  END
$$$$
