
     RDKit          3D

 27 29  0  0  0  0  0  0  0  0999 V2000
  -20.1505   42.2829  -25.8881 C   0  0  0  0  0  0  0  0  0  0  0  0
  -20.4195   40.8537  -25.6886 N   0  0  0  0  0  0  0  0  0  0  0  0
  -21.1639   40.0620  -26.4625 C   0  0  0  0  0  0  0  0  0  0  0  0
  -21.1947   38.8065  -25.9819 N   0  0  0  0  0  0  0  0  0  0  0  0
  -20.4473   38.8007  -24.8692 C   0  0  0  0  0  0  0  0  0  0  0  0
  -20.1243   37.8077  -23.9745 C   0  0  0  0  0  0  0  0  0  0  0  0
  -20.5638   36.5466  -24.0995 F   0  0  0  0  0  0  0  0  0  0  0  0
  -19.3065   38.1006  -22.8828 C   0  0  0  0  0  0  0  0  0  0  0  0
  -18.9698   37.1046  -21.9601 N   0  0  0  0  0  0  0  0  0  0  0  0
  -18.1582   35.9685  -22.2143 C   0  0  0  0  0  0  0  0  0  0  0  0
  -17.5811   35.8495  -23.4860 C   0  0  0  0  0  0  0  0  0  0  0  0
  -16.7724   34.7835  -23.8110 C   0  0  0  0  0  0  0  0  0  0  0  0
  -16.4860   33.7794  -22.9111 C   0  0  0  0  0  0  0  0  0  0  0  0
  -15.3677   32.3037  -23.3588 Br  0  0  0  0  0  0  0  0  0  0  0  0
  -17.0541   33.8987  -21.6619 C   0  0  0  0  0  0  0  0  0  0  0  0
  -17.8760   34.9727  -21.3156 C   0  0  0  0  0  0  0  0  0  0  0  0
  -18.4001   35.0419  -20.0591 F   0  0  0  0  0  0  0  0  0  0  0  0
  -18.8120   39.3915  -22.6860 C   0  0  0  0  0  0  0  0  0  0  0  0
  -18.0058   39.6856  -21.5341 C   0  0  0  0  0  0  0  0  0  0  0  0
  -17.6220   38.7628  -20.7726 O   0  0  0  0  0  0  0  0  0  0  0  0
  -17.6198   40.9984  -21.2184 N   0  0  0  0  0  0  0  0  0  0  0  0
  -16.8795   41.3114  -20.1240 O   0  0  0  0  0  0  0  0  0  0  0  0
  -16.9436   42.7014  -19.9889 C   0  0  0  0  0  0  0  0  0  0  0  0
  -15.6013   43.2570  -19.5220 C   0  0  0  0  0  0  0  0  0  0  0  0
  -15.5877   43.4114  -18.1385 O   0  0  0  0  0  0  0  0  0  0  0  0
  -19.1410   40.3760  -23.5878 C   0  0  0  0  0  0  0  0  0  0  0  0
  -19.9618   40.0828  -24.6854 C   0  0  0  0  0  0  0  0  0  0  0  0
  1  2  1  0
  2  3  1  0
  3  4  2  0
  4  5  1  0
  5  6  2  0
  6  7  1  0
  6  8  1  0
  8  9  1  0
  9 10  1  0
 10 11  2  0
 11 12  1  0
 12 13  2  0
 13 14  1  0
 13 15  1  0
 15 16  2  0
 16 17  1  0
  8 18  2  0
 18 19  1  0
 19 20  2  0
 19 21  1  0
 21 22  1  0
 22 23  1  0
 23 24  1  0
 24 25  1  0
 18 26  1  0
 26 27  2  0
 27  2  1  0
 27  5  1  0
 16 10  1  0
M  END
$$$$
