
     RDKit          3D

 18 19  0  0  0  0  0  0  0  0999 V2000
  -26.1130   14.2538  -28.5255 C   0  0  0  0  0  0  0  0  0  0  0  0
  -26.0012   14.6420  -27.1615 O   0  0  0  0  0  0  0  0  0  0  0  0
  -26.0788   15.9558  -26.7514 C   0  0  0  0  0  0  0  0  0  0  0  0
  -26.1128   17.0200  -27.6297 C   0  0  0  0  0  0  0  0  0  0  0  0
  -26.1908   18.3359  -27.2120 C   0  0  0  0  0  0  0  0  0  0  0  0
  -26.2250   19.4216  -28.1259 N   0  0  0  0  0  0  0  0  0  0  0  0
  -27.2348   19.4578  -29.1279 C   0  0  0  0  0  0  0  0  0  0  0  0
  -28.0708   18.5260  -29.1421 O   0  0  0  0  0  0  0  0  0  0  0  0
  -27.3235   20.5195  -30.1133 C   0  0  0  0  0  0  0  0  0  0  0  0
  -26.3281   21.4676  -30.1816 C   0  0  0  0  0  0  0  0  0  0  0  0
  -26.3804   22.4966  -31.1111 C   0  0  0  0  0  0  0  0  0  0  0  0
  -27.4619   22.5483  -31.9726 C   0  0  0  0  0  0  0  0  0  0  0  0
  -28.4461   21.6019  -31.8974 C   0  0  0  0  0  0  0  0  0  0  0  0
  -28.3488   20.6275  -30.9810 N   0  0  0  0  0  0  0  0  0  0  0  0
  -26.2341   18.5398  -25.8380 C   0  0  0  0  0  0  0  0  0  0  0  0
  -26.2016   17.4947  -24.9390 C   0  0  0  0  0  0  0  0  0  0  0  0
  -26.1234   16.1884  -25.3874 C   0  0  0  0  0  0  0  0  0  0  0  0
  -26.0804   14.8355  -24.2625 Cl  0  0  0  0  0  0  0  0  0  0  0  0
  1  2  1  0
  2  3  1  0
  3  4  2  0
  4  5  1  0
  5  6  1  0
  6  7  1  0
  7  8  2  0
  7  9  1  0
  9 10  2  0
 10 11  1  0
 11 12  2  0
 12 13  1  0
 13 14  2  0
  5 15  2  0
 15 16  1  0
 16 17  2  0
 17 18  1  0
 17  3  1  0
 14  9  1  0
M  END
$$$$
