
     RDKit          3D

 14 16  0  0  0  0  0  0  0  0999 V2000
  -30.5283   19.9222  -27.0774 O   0  0  0  0  0  0  0  0  0  0  0  0
  -30.5167   18.6988  -26.7631 C   0  0  0  0  0  0  0  0  0  0  0  0
  -29.4457   17.9625  -27.2453 C   0  0  0  0  0  0  0  0  0  0  0  0
  -29.4286   16.6247  -26.9045 C   0  0  0  0  0  0  0  0  0  0  0  0
  -30.4383   16.0821  -26.1248 C   0  0  0  0  0  0  0  0  0  0  0  0
  -30.4608   14.7540  -25.7615 C   0  0  0  0  0  0  0  0  0  0  0  0
  -31.4618   14.2051  -24.9857 C   0  0  0  0  0  0  0  0  0  0  0  0
  -31.7194   12.9400  -24.4907 C   0  0  0  0  0  0  0  0  0  0  0  0
  -32.8917   13.0135  -23.7704 C   0  0  0  0  0  0  0  0  0  0  0  0
  -33.2891   14.2576  -23.8466 O   0  0  0  0  0  0  0  0  0  0  0  0
  -32.4965   15.0102  -24.5445 C   0  0  0  0  0  0  0  0  0  0  0  0
  -32.4747   16.3495  -24.9102 C   0  0  0  0  0  0  0  0  0  0  0  0
  -31.4699   16.8841  -25.6847 C   0  0  0  0  0  0  0  0  0  0  0  0
  -31.4627   18.1669  -26.0265 O   0  0  0  0  0  0  0  0  0  0  0  0
  1  2  2  0
  2  3  1  0
  3  4  2  0
  4  5  1  0
  5  6  2  0
  6  7  1  0
  7  8  1  0
  8  9  2  0
  9 10  1  0
 10 11  1  0
 11 12  1  0
 12 13  2  0
 13 14  1  0
 14  2  1  0
 13  5  1  0
 11  7  2  0
M  END
$$$$
