
     RDKit          3D

 34 38  0  0  0  0  0  0  0  0999 V2000
  -29.6464   15.0063  -26.1387 C   0  0  0  0  0  0  0  0  0  0  0  0
  -30.8031   15.8664  -25.8607 C   0  0  2  0  0  0  0  0  0  0  0  0
  -32.0071   15.5995  -26.7351 C   0  0  0  0  0  0  0  0  0  0  0  0
  -33.2337   15.3369  -25.9090 C   0  0  0  0  0  0  0  0  0  0  0  0
  -33.5753   16.4225  -25.0298 N   0  0  0  0  0  0  0  0  0  0  0  0
  -32.9914   17.7135  -24.8235 C   0  0  0  0  0  0  0  0  0  0  0  0
  -33.6746   18.5925  -24.2293 O   0  0  0  0  0  0  0  0  0  0  0  0
  -31.6379   18.0777  -25.2642 C   0  0  0  0  0  0  0  0  0  0  0  0
  -31.1609   19.3653  -25.2598 C   0  0  0  0  0  0  0  0  0  0  0  0
  -29.8724   19.3735  -25.7401 C   0  0  0  0  0  0  0  0  0  0  0  0
  -28.9451   20.3713  -25.9442 C   0  0  0  0  0  0  0  0  0  0  0  0
  -27.6937   20.0831  -26.4539 C   0  0  0  0  0  0  0  0  0  0  0  0
  -27.3952   18.7500  -26.7586 C   0  0  0  0  0  0  0  0  0  0  0  0
  -26.0817   18.4035  -27.2706 C   0  0  0  0  0  0  0  0  0  0  0  0
  -25.2803   19.3532  -27.5571 O   0  0  0  0  0  0  0  0  0  0  0  0
  -25.5961   17.1019  -27.4892 N   0  0  0  0  0  0  0  0  0  0  0  0
  -24.8019   16.7477  -28.6260 C   0  0  0  0  0  0  0  0  0  0  0  0
  -24.4735   17.6677  -29.5818 N   0  0  0  0  0  0  0  0  0  0  0  0
  -23.7378   17.0565  -30.5169 C   0  0  0  0  0  0  0  0  0  0  0  0
  -23.1270   17.4483  -31.6954 C   0  0  0  0  0  0  0  0  0  0  0  0
  -22.4058   16.5645  -32.4814 C   0  0  0  0  0  0  0  0  0  0  0  0
  -22.2885   15.2509  -32.0822 C   0  0  0  0  0  0  0  0  0  0  0  0
  -22.8957   14.8610  -30.9110 C   0  0  0  0  0  0  0  0  0  0  0  0
  -23.6171   15.7528  -30.1285 C   0  0  0  0  0  0  0  0  0  0  0  0
  -24.2694   15.6025  -28.9883 N   0  0  0  0  0  0  0  0  0  0  0  0
  -24.3932   14.3323  -28.2542 C   0  0  0  0  0  0  0  0  0  0  0  0
  -23.7491   14.4700  -26.9217 C   0  0  0  0  0  0  0  0  0  0  0  0
  -23.8961   13.3201  -26.0126 C   0  0  0  0  0  0  0  0  0  0  0  0
  -23.3675   13.4073  -24.6967 N   0  0  0  0  0  0  0  0  0  0  0  0
  -24.2191   14.4155  -24.0030 C   0  0  0  0  0  0  0  0  0  0  0  0
  -23.5851   12.1512  -23.9671 C   0  0  0  0  0  0  0  0  0  0  0  0
  -28.3238   17.7548  -26.5537 C   0  0  0  0  0  0  0  0  0  0  0  0
  -29.5727   18.0458  -26.0420 C   0  0  0  0  0  0  0  0  0  0  0  0
  -30.6308   17.2749  -25.7536 N   0  0  0  0  0  0  0  0  0  0  0  0
  2  1  1  6
  2  3  1  0
  3  4  1  0
  4  5  1  0
  5  6  1  0
  6  7  2  0
  6  8  1  0
  8  9  2  0
  9 10  1  0
 10 11  2  0
 11 12  1  0
 12 13  2  0
 13 14  1  0
 14 15  2  0
 14 16  1  0
 16 17  1  0
 17 18  2  0
 18 19  1  0
 19 20  2  0
 20 21  1  0
 21 22  2  0
 22 23  1  0
 23 24  2  0
 24 25  1  0
 25 26  1  0
 26 27  1  0
 27 28  1  0
 28 29  1  0
 29 30  1  0
 29 31  1  0
 13 32  1  0
 32 33  2  0
 33 34  1  0
 34  2  1  0
 34  8  1  0
 33 10  1  0
 25 17  1  0
 24 19  1  0
M  END
$$$$
