
     RDKit          3D

 21 21  0  0  0  0  0  0  0  0999 V2000
  -16.0995   43.6104  -19.6619 C   0  0  0  0  0  0  0  0  0  0  0  0
  -16.5458   43.6285  -21.1009 C   0  0  0  0  0  0  0  0  0  0  0  0
  -16.0625   44.5718  -21.9824 C   0  0  0  0  0  0  0  0  0  0  0  0
  -16.4888   44.5634  -23.2918 C   0  0  0  0  0  0  0  0  0  0  0  0
  -15.9885   45.5695  -24.2796 C   0  0  0  0  0  0  0  0  0  0  0  0
  -17.3996   43.6290  -23.7671 C   0  0  0  0  0  0  0  0  0  0  0  0
  -17.8906   42.6799  -22.8949 C   0  0  0  0  0  0  0  0  0  0  0  0
  -18.8444   41.6656  -23.3023 C   0  0  0  0  0  0  0  0  0  0  0  0
  -20.0721   41.8455  -23.0238 O   0  0  0  0  0  0  0  0  0  0  0  0
  -18.4349   40.5035  -23.9908 N   0  0  0  0  0  0  0  0  0  0  0  0
  -19.1625   39.3451  -23.8796 O   0  0  0  0  0  0  0  0  0  0  0  0
  -18.8599   38.8314  -22.6196 C   0  0  0  0  0  0  0  0  0  0  0  0
  -18.1897   37.4753  -22.8520 C   0  0  0  0  0  0  0  0  0  0  0  0
  -18.9876   36.3811  -22.2073 C   0  0  0  0  0  0  0  0  0  0  0  0
  -18.3111   35.0666  -22.4000 C   0  0  0  0  0  0  0  0  0  0  0  0
  -18.3347   34.1585  -21.1971 C   0  0  0  0  0  0  0  0  0  0  0  0
  -19.0846   32.9335  -21.5390 C   0  0  0  0  0  0  0  0  0  0  0  0
  -19.5036   32.1705  -20.6465 O   0  0  0  0  0  0  0  0  0  0  0  0
  -19.3329   32.6179  -22.8941 N   0  0  0  0  0  0  0  0  0  0  0  0
  -20.0647   31.5204  -23.2528 O   0  0  0  0  0  0  0  0  0  0  0  0
  -17.4466   42.7034  -21.5688 C   0  0  0  0  0  0  0  0  0  0  0  0
  1  2  1  0
  2  3  2  0
  3  4  1  0
  4  5  1  0
  4  6  2  0
  6  7  1  0
  7  8  1  0
  8  9  2  0
  8 10  1  0
 10 11  1  0
 11 12  1  0
 12 13  1  0
 13 14  1  0
 14 15  1  0
 15 16  1  0
 16 17  1  0
 17 18  2  0
 17 19  1  0
 19 20  1  0
  7 21  2  0
 21  2  1  0
M  END
$$$$
