
     RDKit          3D

 33 37  0  0  0  0  0  0  0  0999 V2000
  -21.9370   28.5283  -25.8681 N   0  0  0  0  0  0  0  0  0  0  0  0
  -21.8129   28.8664  -24.7763 C   0  0  0  0  0  0  0  0  0  0  0  0
  -21.6349   29.2886  -23.4161 C   0  0  0  0  0  0  0  0  0  0  0  0
  -22.5105   28.8642  -22.4227 C   0  0  0  0  0  0  0  0  0  0  0  0
  -22.2646   29.3150  -21.1576 C   0  0  0  0  0  0  0  0  0  0  0  0
  -21.2206   30.1466  -20.8263 C   0  0  0  0  0  0  0  0  0  0  0  0
  -20.7813   30.7121  -19.6794 N   0  0  0  0  0  0  0  0  0  0  0  0
  -19.6886   31.4533  -19.9316 C   0  0  0  0  0  0  0  0  0  0  0  0
  -19.4038   31.3719  -21.2781 C   0  0  0  0  0  0  0  0  0  0  0  0
  -18.3024   32.0130  -22.0381 C   0  0  0  0  0  0  0  0  0  0  0  0
  -18.8753   33.1643  -22.8088 C   0  0  0  0  0  0  0  0  0  0  0  0
  -18.4927   34.5149  -22.2659 C   0  0  0  0  0  0  0  0  0  0  0  0
  -18.0635   35.4651  -23.3546 C   0  0  0  0  0  0  0  0  0  0  0  0
  -18.0296   36.8323  -22.9979 N   0  0  0  0  0  0  0  0  0  0  0  0
  -19.3119   37.4308  -22.9366 C   0  0  0  0  0  0  0  0  0  0  0  0
  -19.3014   38.8728  -22.5156 C   0  0  0  0  0  0  0  0  0  0  0  0
  -18.0066   39.4459  -22.3378 N   0  0  0  0  0  0  0  0  0  0  0  0
  -17.8911   40.8677  -22.2573 C   0  0  0  0  0  0  0  0  0  0  0  0
  -17.1367   41.4854  -21.2865 C   0  0  0  0  0  0  0  0  0  0  0  0
  -17.0232   42.8430  -21.2008 C   0  0  0  0  0  0  0  0  0  0  0  0
  -17.6783   43.6662  -22.1091 C   0  0  0  0  0  0  0  0  0  0  0  0
  -17.7505   44.9605  -22.2673 O   0  0  0  0  0  0  0  0  0  0  0  0
  -18.5159   45.2578  -23.2965 C   0  0  0  0  0  0  0  0  0  0  0  0
  -18.8395   46.5735  -23.7889 C   0  0  0  0  0  0  0  0  0  0  0  0
  -19.7106   46.7546  -24.8935 N   0  0  0  0  0  0  0  0  0  0  0  0
  -18.3366   47.5766  -23.2244 O   0  0  0  0  0  0  0  0  0  0  0  0
  -18.9690   44.0672  -23.8402 C   0  0  0  0  0  0  0  0  0  0  0  0
  -18.4329   43.0655  -23.0810 C   0  0  0  0  0  0  0  0  0  0  0  0
  -18.5483   41.6749  -23.1674 C   0  0  0  0  0  0  0  0  0  0  0  0
  -16.7715   38.6990  -22.2254 C   0  0  0  0  0  0  0  0  0  0  0  0
  -17.0945   37.2313  -22.0082 C   0  0  0  0  0  0  0  0  0  0  0  0
  -20.3577   30.5580  -21.8365 C   0  0  0  0  0  0  0  0  0  0  0  0
  -20.5815   30.1179  -23.1267 C   0  0  0  0  0  0  0  0  0  0  0  0
  1  2  3  0
  2  3  1  0
  3  4  2  0
  4  5  1  0
  5  6  2  0
  6  7  1  0
  7  8  1  0
  8  9  2  0
  9 10  1  0
 10 11  1  0
 11 12  1  0
 12 13  1  0
 13 14  1  0
 14 15  1  0
 15 16  1  0
 16 17  1  0
 17 18  1  0
 18 19  2  0
 19 20  1  0
 20 21  2  0
 21 22  1  0
 22 23  1  0
 23 24  1  0
 24 25  1  0
 24 26  2  0
 23 27  2  0
 27 28  1  0
 28 29  2  0
 17 30  1  0
 30 31  1  0
  9 32  1  0
 32 33  2  0
 33  3  1  0
 32  6  1  0
 31 14  1  0
 29 18  1  0
 28 21  1  0
M  END
$$$$
