
     RDKit          3D

 19 21  0  0  0  0  0  0  0  0999 V2000
  -28.8034   25.2105  -35.7914 N   0  0  0  0  0  0  0  0  0  0  0  0
  -28.5093   24.9326  -34.7010 C   0  0  0  0  0  0  0  0  0  0  0  0
  -28.1572   24.5659  -33.3471 C   0  0  0  0  0  0  0  0  0  0  0  0
  -27.1965   25.2548  -32.6352 C   0  0  0  0  0  0  0  0  0  0  0  0
  -26.8559   24.9099  -31.3424 C   0  0  0  0  0  0  0  0  0  0  0  0
  -27.4973   23.8321  -30.7268 C   0  0  0  0  0  0  0  0  0  0  0  0
  -28.4527   23.1325  -31.4091 C   0  0  0  0  0  0  0  0  0  0  0  0
  -29.1325   22.0037  -30.7805 C   0  0  0  0  0  0  0  0  0  0  0  0
  -28.8564   21.4744  -29.5659 N   0  0  0  0  0  0  0  0  0  0  0  0
  -29.6909   20.4467  -29.3268 C   0  0  0  0  0  0  0  0  0  0  0  0
  -29.7454   19.5970  -28.1469 C   0  0  0  0  0  0  0  0  0  0  0  0
  -28.7627   19.6615  -27.1813 C   0  0  0  0  0  0  0  0  0  0  0  0
  -28.8624   18.8351  -26.0840 C   0  0  0  0  0  0  0  0  0  0  0  0
  -29.9393   17.9771  -25.9941 C   0  0  0  0  0  0  0  0  0  0  0  0
  -30.8887   17.9251  -26.9420 N   0  0  0  0  0  0  0  0  0  0  0  0
  -30.8016   18.7199  -28.0068 C   0  0  0  0  0  0  0  0  0  0  0  0
  -30.4770   20.3598  -30.4126 N   0  0  0  0  0  0  0  0  0  0  0  0
  -30.1206   21.2965  -31.2556 O   0  0  0  0  0  0  0  0  0  0  0  0
  -28.7651   23.5050  -32.6939 C   0  0  0  0  0  0  0  0  0  0  0  0
  1  2  3  0
  2  3  1  0
  3  4  2  0
  4  5  1  0
  5  6  2  0
  6  7  1  0
  7  8  1  0
  8  9  2  0
  9 10  1  0
 10 11  1  0
 11 12  2  0
 12 13  1  0
 13 14  2  0
 14 15  1  0
 15 16  2  0
 10 17  2  0
 17 18  1  0
  7 19  2  0
 19  3  1  0
 18  8  1  0
 16 11  1  0
M  END
$$$$
