
     RDKit          3D

 26 28  0  0  0  0  0  0  0  0999 V2000
  -19.2686   39.1514  -19.6223 O   0  0  0  0  0  0  0  0  0  0  0  0
  -19.3014   40.3002  -20.1768 C   0  0  0  0  0  0  0  0  0  0  0  0
  -20.4079   41.0760  -19.9296 O   0  0  0  0  0  0  0  0  0  0  0  0
  -18.2287   40.7524  -21.0131 C   0  0  0  0  0  0  0  0  0  0  0  0
  -17.4387   41.8030  -20.5191 C   0  0  0  0  0  0  0  0  0  0  0  0
  -16.4243   42.3401  -21.2686 C   0  0  0  0  0  0  0  0  0  0  0  0
  -15.6259   43.4587  -20.6724 C   0  0  0  0  0  0  0  0  0  0  0  0
  -16.5349   44.2635  -20.0014 F   0  0  0  0  0  0  0  0  0  0  0  0
  -15.1016   44.1907  -21.7080 F   0  0  0  0  0  0  0  0  0  0  0  0
  -14.6557   42.9691  -19.8197 F   0  0  0  0  0  0  0  0  0  0  0  0
  -16.1675   41.8480  -22.5291 C   0  0  0  0  0  0  0  0  0  0  0  0
  -16.9483   40.8238  -22.9907 C   0  0  0  0  0  0  0  0  0  0  0  0
  -17.9966   40.2476  -22.2494 C   0  0  0  0  0  0  0  0  0  0  0  0
  -18.6876   39.1737  -22.8026 N   0  0  0  0  0  0  0  0  0  0  0  0
  -20.1527   39.0700  -22.8913 C   0  0  0  0  0  0  0  0  0  0  0  0
  -20.3828   37.6037  -22.4411 C   0  0  0  0  0  0  0  0  0  0  0  0
  -19.1597   36.8877  -22.9782 C   0  0  2  0  0  0  0  0  0  0  0  0
  -18.6425   35.9695  -22.0832 O   0  0  0  0  0  0  0  0  0  0  0  0
  -18.3265   34.7685  -22.6762 C   0  0  0  0  0  0  0  0  0  0  0  0
  -19.1968   33.6998  -22.1512 C   0  0  0  0  0  0  0  0  0  0  0  0
  -20.4626   34.0083  -21.6719 C   0  0  0  0  0  0  0  0  0  0  0  0
  -21.2796   33.0171  -21.1810 C   0  0  0  0  0  0  0  0  0  0  0  0
  -20.7969   31.7241  -21.1844 C   0  0  0  0  0  0  0  0  0  0  0  0
  -19.5381   31.4065  -21.6595 C   0  0  0  0  0  0  0  0  0  0  0  0
  -18.7801   32.4082  -22.1275 N   0  0  0  0  0  0  0  0  0  0  0  0
  -18.1510   37.9464  -23.3761 C   0  0  0  0  0  0  0  0  0  0  0  0
  1  2  2  0
  2  3  1  0
  2  4  1  0
  4  5  2  0
  5  6  1  0
  6  7  1  0
  7  8  1  0
  7  9  1  0
  7 10  1  0
  6 11  2  0
 11 12  1  0
 12 13  2  0
 13 14  1  0
 14 15  1  0
 15 16  1  0
 16 17  1  0
 17 18  1  1
 18 19  1  0
 19 20  1  0
 20 21  2  0
 21 22  1  0
 22 23  2  0
 23 24  1  0
 24 25  2  0
 17 26  1  0
 13  4  1  0
 26 14  1  0
 25 20  1  0
M  END
$$$$
