
     RDKit          3D

 15 15  0  0  0  0  0  0  0  0999 V2000
  -18.4302   39.6268  -21.6927 N   0  0  0  0  0  0  0  0  0  0  0  0
  -17.2114   38.4204  -21.9429 S   0  0  0  0  0  6  0  0  0  0  0  0
  -16.6166   38.7079  -23.3158 O   0  0  0  0  0  0  0  0  0  0  0  0
  -16.0852   38.5954  -20.9641 O   0  0  0  0  0  0  0  0  0  0  0  0
  -17.8811   36.8026  -21.8964 C   0  0  0  0  0  0  0  0  0  0  0  0
  -17.1161   35.7082  -21.5253 C   0  0  0  0  0  0  0  0  0  0  0  0
  -17.6361   34.4317  -21.4826 C   0  0  0  0  0  0  0  0  0  0  0  0
  -18.9490   34.1714  -21.8076 C   0  0  0  0  0  0  0  0  0  0  0  0
  -19.4831   32.7901  -21.7525 C   0  0  0  0  0  0  0  0  0  0  0  0
  -19.0751   31.9318  -22.9119 C   0  0  0  0  0  0  0  0  0  0  0  0
  -20.0514   30.8259  -23.0229 C   0  0  0  0  0  0  0  0  0  0  0  0
  -21.0006   30.8588  -23.8351 O   0  0  0  0  0  0  0  0  0  0  0  0
  -19.9310   29.7112  -22.2145 O   0  0  0  0  0  0  0  0  0  0  0  0
  -19.7114   35.2594  -22.1775 C   0  0  0  0  0  0  0  0  0  0  0  0
  -19.1957   36.5395  -22.2219 C   0  0  0  0  0  0  0  0  0  0  0  0
  1  2  1  0
  2  3  2  0
  2  4  2  0
  2  5  1  0
  5  6  2  0
  6  7  1  0
  7  8  2  0
  8  9  1  0
  9 10  1  0
 10 11  1  0
 11 12  2  0
 11 13  1  0
  8 14  1  0
 14 15  2  0
 15  5  1  0
M  END
$$$$
