
     RDKit          3D

 33 35  0  0  0  0  0  0  0  0999 V2000
  -20.6105   18.9516  -34.3598 C   0  0  0  0  0  0  0  0  0  0  0  0
  -21.3185   17.9239  -33.5451 C   0  0  0  0  0  0  0  0  0  0  0  0
  -22.6888   18.0302  -33.3282 C   0  0  0  0  0  0  0  0  0  0  0  0
  -23.3194   17.0655  -32.5705 C   0  0  0  0  0  0  0  0  0  0  0  0
  -22.5790   16.0264  -32.0505 C   0  0  0  0  0  0  0  0  0  0  0  0
  -23.2811   15.0228  -31.2527 C   0  0  0  0  0  0  0  0  0  0  0  0
  -23.1552   13.7952  -31.5368 O   0  0  0  0  0  0  0  0  0  0  0  0
  -24.0861   15.3875  -30.1862 O   0  0  0  0  0  0  0  0  0  0  0  0
  -24.5855   14.4133  -29.2889 C   0  0  0  0  0  0  0  0  0  0  0  0
  -24.0218   14.6313  -27.9153 C   0  0  0  0  0  0  0  0  0  0  0  0
  -23.0987   15.4609  -27.7185 O   0  0  0  0  0  0  0  0  0  0  0  0
  -24.5033   13.9140  -26.7814 N   0  0  0  0  0  0  0  0  0  0  0  0
  -23.9980   14.1506  -25.4685 C   0  0  0  0  0  0  0  0  0  0  0  0
  -23.1075   15.1194  -25.1890 N   0  0  0  0  0  0  0  0  0  0  0  0
  -22.6374   15.3295  -23.9306 C   0  0  0  0  0  0  0  0  0  0  0  0
  -23.0430   14.5623  -22.8562 C   0  0  0  0  0  0  0  0  0  0  0  0
  -22.5478   14.7696  -21.4790 C   0  0  0  0  0  0  0  0  0  0  0  0
  -22.3405   13.5914  -20.7987 F   0  0  0  0  0  0  0  0  0  0  0  0
  -23.5160   15.5027  -20.7993 F   0  0  0  0  0  0  0  0  0  0  0  0
  -21.3434   15.4448  -21.5212 F   0  0  0  0  0  0  0  0  0  0  0  0
  -23.9628   13.5550  -23.1205 C   0  0  0  0  0  0  0  0  0  0  0  0
  -24.4202   13.3695  -24.4146 C   0  0  0  0  0  0  0  0  0  0  0  0
  -25.5857   12.0975  -24.7658 Cl  0  0  0  0  0  0  0  0  0  0  0  0
  -21.2119   15.9283  -32.2721 C   0  0  0  0  0  0  0  0  0  0  0  0
  -20.5756   16.8876  -33.0275 C   0  0  0  0  0  0  0  0  0  0  0  0
  -19.1843   16.8170  -33.2719 N   0  0  0  0  0  0  0  0  0  0  0  0
  -18.3036   17.0626  -32.1693 C   0  0  0  0  0  0  0  0  0  0  0  0
  -18.7871   17.2191  -31.0249 O   0  0  0  0  0  0  0  0  0  0  0  0
  -16.8632   17.1333  -32.3547 C   0  0  0  0  0  0  0  0  0  0  0  0
  -15.9499   17.3170  -31.3409 C   0  0  0  0  0  0  0  0  0  0  0  0
  -14.6757   17.3327  -31.8863 C   0  0  0  0  0  0  0  0  0  0  0  0
  -14.9020   17.1506  -33.2504 C   0  0  0  0  0  0  0  0  0  0  0  0
  -16.1841   17.0391  -33.4809 O   0  0  0  0  0  0  0  0  0  0  0  0
  1  2  1  0
  2  3  2  0
  3  4  1  0
  4  5  2  0
  5  6  1  0
  6  7  2  0
  6  8  1  0
  8  9  1  0
  9 10  1  0
 10 11  2  0
 10 12  1  0
 12 13  1  0
 13 14  2  0
 14 15  1  0
 15 16  2  0
 16 17  1  0
 17 18  1  0
 17 19  1  0
 17 20  1  0
 16 21  1  0
 21 22  2  0
 22 23  1  0
  5 24  1  0
 24 25  2  0
 25 26  1  0
 26 27  1  0
 27 28  2  0
 27 29  1  0
 29 30  2  0
 30 31  1  0
 31 32  2  0
 32 33  1  0
 25  2  1  0
 33 29  1  0
 22 13  1  0
M  END
$$$$
