
     RDKit          3D

 27 31  0  0  0  0  0  0  0  0999 V2000
  -17.1560   19.5228  -41.1305 O   0  0  0  0  0  0  0  0  0  0  0  0
  -16.1992   18.9271  -41.6565 C   0  0  0  0  0  0  0  0  0  0  0  0
  -15.0682   18.4970  -40.9723 C   0  0  0  0  0  0  0  0  0  0  0  0
  -14.0409   17.8444  -41.5963 C   0  0  0  0  0  0  0  0  0  0  0  0
  -12.8664   17.3991  -40.8526 C   0  0  0  0  0  0  0  0  0  0  0  0
  -12.8885   16.4911  -39.8266 C   0  0  0  0  0  0  0  0  0  0  0  0
  -11.7549   16.0879  -39.1547 C   0  0  0  0  0  0  0  0  0  0  0  0
  -10.5258   16.5987  -39.5021 C   0  0  0  0  0  0  0  0  0  0  0  0
  -10.4584   17.5199  -40.5368 C   0  0  0  0  0  0  0  0  0  0  0  0
  -11.6027   17.9061  -41.1912 C   0  0  0  0  0  0  0  0  0  0  0  0
  -11.4944   19.0857  -42.5550 S   0  0  0  0  0  0  0  0  0  0  0  0
  -10.0761   18.5707  -43.5502 C   0  0  0  0  0  0  0  0  0  0  0  0
  -10.0665   18.5186  -44.9025 C   0  0  0  0  0  0  0  0  0  0  0  0
   -8.9506   18.1054  -45.6196 C   0  0  0  0  0  0  0  0  0  0  0  0
   -7.8245   17.7388  -44.9354 C   0  0  0  0  0  0  0  0  0  0  0  0
   -7.8042   17.7811  -43.5440 C   0  0  0  0  0  0  0  0  0  0  0  0
   -8.9224   18.1939  -42.8696 C   0  0  0  0  0  0  0  0  0  0  0  0
   -8.9049   18.2337  -41.0820 S   0  0  0  0  0  0  0  0  0  0  0  0
  -14.1512   17.6296  -42.8883 O   0  0  0  0  0  0  0  0  0  0  0  0
  -15.1891   18.0048  -43.6086 C   0  0  0  0  0  0  0  0  0  0  0  0
  -15.2703   17.7573  -44.9971 N   0  0  0  0  0  0  0  0  0  0  0  0
  -16.3805   18.2015  -45.8121 C   0  0  0  0  0  0  0  0  0  0  0  0
  -15.8905   18.8005  -47.1214 C   0  0  0  0  0  0  0  0  0  0  0  0
  -14.9558   17.9997  -47.7401 O   0  0  0  0  0  0  0  0  0  0  0  0
  -13.8461   17.8340  -46.9491 C   0  0  0  0  0  0  0  0  0  0  0  0
  -14.1969   17.0444  -45.6902 C   0  0  0  0  0  0  0  0  0  0  0  0
  -16.2578   18.6728  -43.0080 C   0  0  0  0  0  0  0  0  0  0  0  0
  1  2  2  0
  2  3  1  0
  3  4  2  0
  4  5  1  0
  5  6  2  0
  6  7  1  0
  7  8  2  0
  8  9  1  0
  9 10  2  0
 10 11  1  0
 11 12  1  0
 12 13  2  0
 13 14  1  0
 14 15  2  0
 15 16  1  0
 16 17  2  0
 17 18  1  0
  4 19  1  0
 19 20  1  0
 20 21  1  0
 21 22  1  0
 22 23  1  0
 23 24  1  0
 24 25  1  0
 25 26  1  0
 20 27  2  0
 27  2  1  0
 10  5  1  0
 17 12  1  0
 26 21  1  0
 18  9  1  0
M  END
$$$$
