
     RDKit          3D

 29 31  0  0  0  0  0  0  0  0999 V2000
  -14.6442   44.7165  -18.3504 C   0  0  0  0  0  0  0  0  0  0  0  0
  -15.4008   44.2905  -19.2953 O   0  0  0  0  0  0  0  0  0  0  0  0
  -16.1660   43.8480  -20.2477 C   0  0  0  0  0  0  0  0  0  0  0  0
  -16.4920   42.4874  -20.3588 C   0  0  0  0  0  0  0  0  0  0  0  0
  -17.3127   41.9952  -21.3063 C   0  0  0  0  0  0  0  0  0  0  0  0
  -17.5534   40.7248  -21.5985 N   0  0  0  0  0  0  0  0  0  0  0  0
  -18.2306   40.2250  -22.6110 C   0  0  0  0  0  0  0  0  0  0  0  0
  -18.3916   38.8208  -22.8967 N   0  0  0  0  0  0  0  0  0  0  0  0
  -19.6275   38.4520  -23.5204 C   0  0  0  0  0  0  0  0  0  0  0  0
  -20.0465   37.0336  -23.3095 C   0  0  0  0  0  0  0  0  0  0  0  0
  -19.1152   36.1881  -22.6723 N   0  0  0  0  0  0  0  0  0  0  0  0
  -19.4040   34.8653  -22.3082 C   0  0  0  0  0  0  0  0  0  0  0  0
  -20.6175   34.4706  -22.7930 O   0  0  0  0  0  0  0  0  0  0  0  0
  -18.6770   33.9396  -21.5535 C   0  0  0  0  0  0  0  0  0  0  0  0
  -17.4527   33.5511  -21.6127 C   0  0  0  0  0  0  0  0  0  0  0  0
  -17.1359   32.6254  -20.6297 C   0  0  0  0  0  0  0  0  0  0  0  0
  -18.2617   32.4451  -19.9595 C   0  0  0  0  0  0  0  0  0  0  0  0
  -19.2976   33.2532  -20.4930 O   0  0  0  0  0  0  0  0  0  0  0  0
  -17.6989   36.5438  -22.4047 C   0  0  0  0  0  0  0  0  0  0  0  0
  -17.3326   37.9308  -22.6685 C   0  0  0  0  0  0  0  0  0  0  0  0
  -18.7851   41.0922  -23.5216 N   0  0  0  0  0  0  0  0  0  0  0  0
  -18.5898   42.4369  -23.3081 C   0  0  0  0  0  0  0  0  0  0  0  0
  -19.1296   43.4227  -24.1555 N   0  0  0  0  0  0  0  0  0  0  0  0
  -17.8744   42.8604  -22.2253 C   0  0  0  0  0  0  0  0  0  0  0  0
  -17.5788   44.2096  -22.1129 C   0  0  0  0  0  0  0  0  0  0  0  0
  -16.7425   44.7213  -21.1693 C   0  0  0  0  0  0  0  0  0  0  0  0
  -16.3801   46.0578  -21.0634 O   0  0  0  0  0  0  0  0  0  0  0  0
  -16.9806   46.8243  -22.1834 C   0  0  0  0  0  0  0  0  0  0  0  0
  -17.6188   40.6249  -21.7336 Cl  0  0  0  0  0  0  0  0  0  0  0  0
  1  2  1  0
  2  3  1  0
  3  4  2  0
  4  5  1  0
  5  6  2  0
  6  7  1  0
  7  8  1  0
  8  9  1  0
  9 10  1  0
 10 11  1  0
 11 12  1  0
 12 13  2  0
 12 14  1  0
 14 15  2  0
 15 16  1  0
 16 17  2  0
 17 18  1  0
 11 19  1  0
 19 20  1  0
  7 21  2  0
 21 22  1  0
 22 23  1  0
 22 24  2  0
 24 25  1  0
 25 26  2  0
 26 27  1  0
 27 28  1  0
 26  3  1  0
 24  5  1  0
 20  8  1  0
 18 14  1  0
M  END
$$$$
