
     RDKit          3D

 31 34  0  0  0  0  0  0  0  0999 V2000
  -22.2554   39.5860  -25.7208 C   0  0  0  0  0  0  0  0  0  0  0  0
  -21.0005   38.8690  -26.1844 C   0  0  0  0  0  0  0  0  0  0  0  0
  -21.5032   37.6190  -26.9157 C   0  0  0  0  0  0  0  0  0  0  0  0
  -20.2736   39.7862  -27.1347 C   0  0  0  0  0  0  0  0  0  0  0  0
  -20.2074   38.4753  -25.0507 N   0  0  0  0  0  0  0  0  0  0  0  0
  -19.5835   39.2716  -24.0695 C   0  0  0  0  0  0  0  0  0  0  0  0
  -19.6980   40.5448  -24.1238 O   0  0  0  0  0  0  0  0  0  0  0  0
  -18.8528   38.5522  -23.0673 C   0  0  0  0  0  0  0  0  0  0  0  0
  -18.1681   39.2292  -21.9987 N   0  0  0  0  0  0  0  0  0  0  0  0
  -17.7761   40.5772  -22.0471 C   0  0  0  0  0  0  0  0  0  0  0  0
  -17.2366   41.2598  -20.9785 C   0  0  0  0  0  0  0  0  0  0  0  0
  -16.8353   42.5837  -21.0630 C   0  0  0  0  0  0  0  0  0  0  0  0
  -16.9667   43.2761  -22.2509 C   0  0  0  0  0  0  0  0  0  0  0  0
  -16.5733   44.6345  -22.3730 N   0  0  0  0  0  0  0  0  0  0  0  0
  -15.4317   45.2179  -21.7101 C   0  0  0  0  0  0  0  0  0  0  0  0
  -15.6509   46.6891  -21.4117 C   0  0  0  0  0  0  0  0  0  0  0  0
  -15.9337   47.4691  -22.6778 C   0  0  0  0  0  0  0  0  0  0  0  0
  -16.4154   46.5718  -23.7911 C   0  0  0  0  0  0  0  0  0  0  0  0
  -17.3444   45.5075  -23.2291 C   0  0  0  0  0  0  0  0  0  0  0  0
  -17.5092   42.5983  -23.3317 C   0  0  0  0  0  0  0  0  0  0  0  0
  -17.9075   41.2702  -23.2304 C   0  0  0  0  0  0  0  0  0  0  0  0
  -18.8505   37.2651  -23.1777 C   0  0  0  0  0  0  0  0  0  0  0  0
  -18.2188   36.2342  -22.3481 C   0  0  0  0  0  0  0  0  0  0  0  0
  -17.5102   35.2269  -22.9932 C   0  0  0  0  0  0  0  0  0  0  0  0
  -16.9161   34.2452  -22.2387 C   0  0  0  0  0  0  0  0  0  0  0  0
  -17.0052   34.2345  -20.8604 C   0  0  0  0  0  0  0  0  0  0  0  0
  -17.7075   35.2302  -20.2020 C   0  0  0  0  0  0  0  0  0  0  0  0
  -18.3071   36.2218  -20.9676 C   0  0  0  0  0  0  0  0  0  0  0  0
  -19.8160   36.8524  -24.6047 S   0  0  0  0  0  6  0  0  0  0  0  0
  -21.0171   36.0568  -24.2550 O   0  0  0  0  0  0  0  0  0  0  0  0
  -18.9822   36.2228  -25.6730 O   0  0  0  0  0  0  0  0  0  0  0  0
  1  2  1  0
  2  3  1  0
  2  4  1  0
  2  5  1  0
  5  6  1  0
  6  7  2  0
  6  8  1  0
  8  9  1  0
  9 10  1  0
 10 11  2  0
 11 12  1  0
 12 13  2  0
 13 14  1  0
 14 15  1  0
 15 16  1  0
 16 17  1  0
 17 18  1  0
 18 19  1  0
 13 20  1  0
 20 21  2  0
  8 22  2  0
 22 23  1  0
 23 24  2  0
 24 25  1  0
 25 26  2  0
 26 27  1  0
 27 28  2  0
 22 29  1  0
 29 30  2  0
 29 31  2  0
 29  5  1  0
 21 10  1  0
 28 23  1  0
 19 14  1  0
M  END
$$$$
