
     RDKit          3D

 21 23  0  0  0  0  0  0  0  0999 V2000
  -15.6476   31.6066  -22.9641 C   0  0  0  0  0  0  0  0  0  0  0  0
  -16.3437   31.7896  -21.6518 C   0  0  0  0  0  0  0  0  0  0  0  0
  -17.5125   32.6659  -21.7099 C   0  0  0  0  0  0  0  0  0  0  0  0
  -17.7682   33.7834  -22.4395 C   0  0  0  0  0  0  0  0  0  0  0  0
  -18.9486   34.4124  -22.3026 C   0  0  0  0  0  0  0  0  0  0  0  0
  -19.3838   35.5799  -22.9867 C   0  0  0  0  0  0  0  0  0  0  0  0
  -18.3172   36.3680  -24.1696 S   0  0  0  0  0  0  0  0  0  0  0  0
  -17.5128   37.7939  -23.3887 C   0  0  0  0  0  0  0  0  0  0  0  0
  -18.5015   38.9301  -23.2701 C   0  0  0  0  0  0  0  0  0  0  0  0
  -19.6324   38.8151  -23.6996 O   0  0  0  0  0  0  0  0  0  0  0  0
  -17.9967   40.1072  -22.6285 C   0  0  0  0  0  0  0  0  0  0  0  0
  -18.5463   41.3144  -22.3776 C   0  0  0  0  0  0  0  0  0  0  0  0
  -17.8615   42.2722  -21.7483 C   0  0  0  0  0  0  0  0  0  0  0  0
  -16.5330   41.9407  -21.3629 C   0  0  0  0  0  0  0  0  0  0  0  0
  -15.3661   42.9624  -20.5208 Cl  0  0  0  0  0  0  0  0  0  0  0  0
  -16.3292   40.2729  -21.9212 S   0  0  0  0  0  0  0  0  0  0  0  0
  -20.5876   36.0579  -22.7294 N   0  0  0  0  0  0  0  0  0  0  0  0
  -21.4773   35.5460  -21.8627 C   0  0  0  0  0  0  0  0  0  0  0  0
  -21.0804   34.4332  -21.1989 N   0  0  0  0  0  0  0  0  0  0  0  0
  -19.8632   33.8969  -21.4202 C   0  0  0  0  0  0  0  0  0  0  0  0
  -19.0152   32.4784  -20.7696 S   0  0  0  0  0  0  0  0  0  0  0  0
  1  2  1  0
  2  3  1  0
  3  4  2  0
  4  5  1  0
  5  6  2  0
  6  7  1  0
  7  8  1  0
  8  9  1  0
  9 10  2  0
  9 11  1  0
 11 12  2  0
 12 13  1  0
 13 14  2  0
 14 15  1  0
 14 16  1  0
  6 17  1  0
 17 18  2  0
 18 19  1  0
 19 20  2  0
 20 21  1  0
 21  3  1  0
 20  5  1  0
 16 11  1  0
M  END
$$$$
