
     RDKit          3D

 30 33  0  0  0  0  0  0  0  0999 V2000
  -40.7507    3.0489  -43.6110 O   0  0  0  0  0  0  0  0  0  0  0  0
  -40.9650    3.8169  -42.6270 C   0  0  0  0  0  0  0  0  0  0  0  0
  -40.9253    3.2465  -41.3671 O   0  0  0  0  0  0  0  0  0  0  0  0
  -41.2403    5.2260  -42.7853 C   0  0  0  0  0  0  0  0  0  0  0  0
  -41.3235    5.8344  -44.0292 C   0  0  0  0  0  0  0  0  0  0  0  0
  -41.5888    7.1845  -44.1296 C   0  0  0  0  0  0  0  0  0  0  0  0
  -41.7803    7.9779  -43.0186 C   0  0  0  0  0  0  0  0  0  0  0  0
  -41.6980    7.3720  -41.7626 C   0  0  0  0  0  0  0  0  0  0  0  0
  -41.4300    6.0098  -41.6699 C   0  0  0  0  0  0  0  0  0  0  0  0
  -41.9397    8.4408  -40.7991 C   0  0  0  0  0  0  0  0  0  0  0  0
  -41.9413    8.2570  -39.5459 O   0  0  0  0  0  0  0  0  0  0  0  0
  -42.1652    9.6771  -41.4672 N   0  0  0  0  0  0  0  0  0  0  0  0
  -42.4365   10.9449  -40.8353 C   0  0  0  0  0  0  0  0  0  0  0  0
  -41.4191   11.7648  -40.3932 C   0  0  0  0  0  0  0  0  0  0  0  0
  -41.6318   12.9747  -39.7890 C   0  0  0  0  0  0  0  0  0  0  0  0
  -42.9279   13.4077  -39.6070 C   0  0  0  0  0  0  0  0  0  0  0  0
  -43.9807   12.6044  -40.0417 C   0  0  0  0  0  0  0  0  0  0  0  0
  -45.2581   13.0987  -39.8283 O   0  0  0  0  0  0  0  0  0  0  0  0
  -45.4964   14.1205  -38.9225 C   0  0  0  0  0  0  0  0  0  0  0  0
  -45.1996   13.8937  -37.5837 C   0  0  0  0  0  0  0  0  0  0  0  0
  -45.4267   14.8918  -36.6635 C   0  0  0  0  0  0  0  0  0  0  0  0
  -45.9414   16.1147  -37.0285 C   0  0  0  0  0  0  0  0  0  0  0  0
  -46.1619   17.1263  -36.0348 N   0  0  0  0  0  4  0  0  0  0  0  0
  -45.9712   16.8815  -34.8295 O   0  0  0  0  0  0  0  0  0  0  0  0
  -46.5845   18.3781  -36.3810 O   0  0  0  0  0  1  0  0  0  0  0  0
  -46.2324   16.3309  -38.3560 C   0  0  0  0  0  0  0  0  0  0  0  0
  -46.0104   15.3472  -39.2743 C   0  0  0  0  0  0  0  0  0  0  0  0
  -43.7319   11.3887  -40.6479 C   0  0  0  0  0  0  0  0  0  0  0  0
  -42.0666    9.3929  -42.8557 C   0  0  0  0  0  0  0  0  0  0  0  0
  -42.2140   10.2713  -43.7496 O   0  0  0  0  0  0  0  0  0  0  0  0
  1  2  2  0
  2  3  1  0
  2  4  1  0
  4  5  2  0
  5  6  1  0
  6  7  2  0
  7  8  1  0
  8  9  2  0
  8 10  1  0
 10 11  2  0
 10 12  1  0
 12 13  1  0
 13 14  2  0
 14 15  1  0
 15 16  2  0
 16 17  1  0
 17 18  1  0
 18 19  1  0
 19 20  2  0
 20 21  1  0
 21 22  2  0
 22 23  1  0
 23 24  2  0
 23 25  1  0
 22 26  1  0
 26 27  2  0
 17 28  2  0
 12 29  1  0
 29 30  2  0
  9  4  1  0
 28 13  1  0
 29  7  1  0
 27 19  1  0
M  CHG  2  23   1  25  -1
M  END
$$$$
