
     RDKit          3D

 11 12  0  0  0  0  0  0  0  0999 V2000
  -19.3777   39.1890  -23.1663 C   0  0  0  0  0  0  0  0  0  0  0  0
  -18.1508   39.1008  -22.5252 C   0  0  0  0  0  0  0  0  0  0  0  0
  -17.6456   37.8729  -22.1898 C   0  0  0  0  0  0  0  0  0  0  0  0
  -18.3373   36.7255  -22.4794 C   0  0  0  0  0  0  0  0  0  0  0  0
  -17.7940   35.4158  -22.1192 C   0  0  0  0  0  0  0  0  0  0  0  0
  -16.6604   35.1343  -21.3901 C   0  0  0  0  0  0  0  0  0  0  0  0
  -16.5197   33.7986  -21.2879 N   0  0  0  0  0  0  0  0  0  0  0  0
  -17.5438   33.2746  -21.9396 N   0  0  0  0  0  0  0  0  0  0  0  0
  -18.3177   34.2356  -22.4443 N   0  0  0  0  0  0  0  0  0  0  0  0
  -19.5598   36.7938  -23.1169 C   0  0  0  0  0  0  0  0  0  0  0  0
  -20.0813   38.0394  -23.4619 C   0  0  0  0  0  0  0  0  0  0  0  0
  1  2  2  0
  2  3  1  0
  3  4  2  0
  4  5  1  0
  5  6  2  0
  6  7  1  0
  7  8  1  0
  8  9  2  0
  4 10  1  0
 10 11  2  0
 11  1  1  0
  9  5  1  0
M  END
$$$$
