
     RDKit          3D

 16 16  0  0  0  0  0  0  0  0999 V2000
  -25.5717   25.6224  -31.8828 C   0  0  0  0  0  0  0  0  0  0  0  0
  -25.7980   24.1143  -31.9354 C   0  0  0  0  0  0  0  0  0  0  0  0
  -27.0460   23.7150  -31.3587 N   0  0  0  0  0  0  0  0  0  0  0  0
  -28.0834   24.6991  -31.1722 C   0  0  0  0  0  0  0  0  0  0  0  0
  -28.8373   24.8638  -32.4988 C   0  0  0  0  0  0  0  0  0  0  0  0
  -27.2753   22.3841  -30.9887 C   0  0  0  0  0  0  0  0  0  0  0  0
  -26.3674   21.5297  -31.3109 O   0  0  0  0  0  0  0  0  0  0  0  0
  -28.4381   21.8748  -30.2782 C   0  0  0  0  0  0  0  0  0  0  0  0
  -29.5743   21.5242  -30.9541 C   0  0  0  0  0  0  0  0  0  0  0  0
  -30.6988   21.0220  -30.3024 C   0  0  0  0  0  0  0  0  0  0  0  0
  -30.6355   20.8854  -28.9406 C   0  0  0  0  0  0  0  0  0  0  0  0
  -31.7513   20.3874  -28.2856 O   0  0  0  0  0  0  0  0  0  0  0  0
  -29.5065   21.2233  -28.1937 C   0  0  0  0  0  0  0  0  0  0  0  0
  -29.5372   21.0459  -26.8237 O   0  0  0  0  0  0  0  0  0  0  0  0
  -28.4116   21.0049  -25.9821 C   0  0  0  0  0  0  0  0  0  0  0  0
  -28.4171   21.7188  -28.8932 C   0  0  0  0  0  0  0  0  0  0  0  0
  1  2  1  0
  2  3  1  0
  3  4  1  0
  4  5  1  0
  3  6  1  0
  6  7  2  0
  6  8  1  0
  8  9  2  0
  9 10  1  0
 10 11  2  0
 11 12  1  0
 11 13  1  0
 13 14  1  0
 14 15  1  0
 13 16  2  0
 16  8  1  0
M  END
$$$$
