
     RDKit          3D

 28 31  0  0  0  0  0  0  0  0999 V2000
  -18.0401   47.6451  -22.0796 C   0  0  0  0  0  0  0  0  0  0  0  0
  -17.9077   46.4053  -21.2984 C   0  0  0  0  0  0  0  0  0  0  0  0
  -17.8208   45.1185  -21.7392 C   0  0  0  0  0  0  0  0  0  0  0  0
  -17.8214   44.5638  -23.1106 C   0  0  0  0  0  0  0  0  0  0  0  0
  -18.5904   43.4195  -23.3148 N   0  0  0  0  0  0  0  0  0  0  0  0
  -20.0736   43.6071  -23.1920 C   0  0  0  0  0  0  0  0  0  0  0  0
  -18.1614   42.1486  -23.6360 C   0  0  0  0  0  0  0  0  0  0  0  0
  -17.1117   42.1201  -24.4263 O   0  0  0  0  0  0  0  0  0  0  0  0
  -18.6363   40.8444  -23.2758 C   0  0  0  0  0  0  0  0  0  0  0  0
  -18.3688   39.7233  -23.8694 C   0  0  0  0  0  0  0  0  0  0  0  0
  -18.7043   38.4376  -23.2378 C   0  0  0  0  0  0  0  0  0  0  0  0
  -20.0053   38.0764  -23.2173 C   0  0  0  0  0  0  0  0  0  0  0  0
  -20.3868   36.8614  -22.6281 N   0  0  0  0  0  0  0  0  0  0  0  0
  -19.4519   35.9764  -22.0400 C   0  0  0  0  0  0  0  0  0  0  0  0
  -19.7987   34.8633  -21.4962 N   0  0  0  0  0  0  0  0  0  0  0  0
  -18.8361   34.0015  -20.9158 C   0  0  0  0  0  0  0  0  0  0  0  0
  -19.1024   32.7639  -20.7636 O   0  0  0  0  0  0  0  0  0  0  0  0
  -17.5279   34.5693  -20.4949 C   0  0  0  0  0  0  0  0  0  0  0  0
  -16.9803   35.5518  -21.4938 C   0  0  0  0  0  0  0  0  0  0  0  0
  -18.0576   36.3749  -22.0674 C   0  0  0  0  0  0  0  0  0  0  0  0
  -17.7450   37.5459  -22.6433 C   0  0  0  0  0  0  0  0  0  0  0  0
  -17.7254   44.3518  -20.6486 O   0  0  0  0  0  0  0  0  0  0  0  0
  -17.7462   45.0650  -19.5638 C   0  0  0  0  0  0  0  0  0  0  0  0
  -17.6783   44.7624  -18.2065 C   0  0  0  0  0  0  0  0  0  0  0  0
  -17.7242   45.7454  -17.2528 C   0  0  0  0  0  0  0  0  0  0  0  0
  -17.8398   47.0816  -17.5996 C   0  0  0  0  0  0  0  0  0  0  0  0
  -17.9075   47.3893  -18.9421 C   0  0  0  0  0  0  0  0  0  0  0  0
  -17.8606   46.3918  -19.8916 C   0  0  0  0  0  0  0  0  0  0  0  0
  1  2  1  0
  2  3  2  0
  3  4  1  0
  4  5  1  0
  5  6  1  0
  5  7  1  0
  7  8  2  0
  7  9  1  0
  9 10  2  0
 10 11  1  0
 11 12  2  0
 12 13  1  0
 13 14  1  0
 14 15  2  0
 15 16  1  0
 16 17  2  0
 16 18  1  0
 18 19  1  0
 19 20  1  0
 20 21  2  0
  3 22  1  0
 22 23  1  0
 23 24  2  0
 24 25  1  0
 25 26  2  0
 26 27  1  0
 27 28  2  0
 28  2  1  0
 21 11  1  0
 28 23  1  0
 20 14  1  0
M  END
$$$$
