
     RDKit          3D

 27 26  0  0  0  0  0  0  0  0999 V2000
  -22.4047   14.9249  -34.3109 C   0  0  0  0  0  0  0  0  0  0  0  0
  -21.2179   14.4381  -35.0029 N   0  0  0  0  0  0  0  0  0  0  0  0
  -21.3447   13.6120  -36.1783 C   0  0  0  0  0  0  0  0  0  0  0  0
  -19.9270   14.7754  -34.5225 C   0  0  0  0  0  0  0  0  0  0  0  0
  -18.9173   14.3484  -35.1295 O   0  0  0  0  0  0  0  0  0  0  0  0
  -19.7896   15.5806  -33.3768 O   0  0  0  0  0  0  0  0  0  0  0  0
  -18.4934   15.8647  -32.9720 C   0  0  0  0  0  0  0  0  0  0  0  0
  -17.8430   15.0462  -32.0928 C   0  0  0  0  0  0  0  0  0  0  0  0
  -16.5464   15.2899  -31.6593 C   0  0  0  0  0  0  0  0  0  0  0  0
  -15.9853   14.4119  -30.7799 O   0  0  0  0  0  0  0  0  0  0  0  0
  -16.0540   14.4970  -29.3999 C   0  0  0  0  0  0  0  0  0  0  0  0
  -16.6925   15.4735  -28.9184 O   0  0  0  0  0  0  0  0  0  0  0  0
  -15.4274   13.5192  -28.5915 N   0  0  0  0  0  0  0  0  0  0  0  0
  -14.7147   12.4299  -29.1892 C   0  0  0  0  0  0  0  0  0  0  0  0
  -15.5165   13.6351  -27.1569 C   0  0  0  0  0  0  0  0  0  0  0  0
  -15.9177   16.4124  -32.1555 C   0  0  0  0  0  0  0  0  0  0  0  0
  -16.5271   17.2720  -33.0444 C   0  0  0  0  0  0  0  0  0  0  0  0
  -15.7776   18.4507  -33.5239 C   0  0  0  0  0  0  0  0  0  0  0  0
  -14.4696   18.1553  -33.8884 O   0  0  0  0  0  0  0  0  0  0  0  0
  -15.8078   19.5980  -32.5402 C   0  0  0  0  0  0  0  0  0  0  0  0
  -17.1808   19.8640  -32.1951 N   0  0  0  0  0  0  0  0  0  0  0  0
  -17.3355   20.9435  -31.2587 C   0  0  0  0  0  0  0  0  0  0  0  0
  -16.6477   20.7152  -29.9566 C   0  0  0  0  0  0  0  0  0  0  0  0
  -18.8358   21.0700  -30.9792 C   0  0  0  0  0  0  0  0  0  0  0  0
  -16.8086   22.2404  -31.8507 C   0  0  0  0  0  0  0  0  0  0  0  0
  -17.8220   16.9846  -33.4464 C   0  0  0  0  0  0  0  0  0  0  0  0
  -17.4867   17.5946  -31.8241 Cl  0  0  0  0  0  0  0  0  0  0  0  0
  1  2  1  0
  2  3  1  0
  2  4  1  0
  4  5  2  0
  4  6  1  0
  6  7  1  0
  7  8  2  0
  8  9  1  0
  9 10  1  0
 10 11  1  0
 11 12  2  0
 11 13  1  0
 13 14  1  0
 13 15  1  0
  9 16  2  0
 16 17  1  0
 17 18  1  0
 18 19  1  0
 18 20  1  0
 20 21  1  0
 21 22  1  0
 22 23  1  0
 22 24  1  0
 22 25  1  0
 17 26  2  0
 26  7  1  0
M  END
$$$$
