
     RDKit          3D

 24 26  0  0  0  0  0  0  0  0999 V2000
  -15.4726   42.1142  -20.8659 O   0  0  0  0  0  0  0  0  0  0  0  0
  -16.8279   42.1539  -20.5192 C   0  0  0  0  0  0  0  0  0  0  0  0
  -17.5807   42.4379  -21.7955 C   0  0  0  0  0  0  0  0  0  0  0  0
  -17.8236   43.6437  -22.2995 C   0  0  0  0  0  0  0  0  0  0  0  0
  -18.5974   43.5308  -23.5764 C   0  0  1  0  0  0  0  0  0  0  0  0
  -17.6604   43.3547  -24.5916 O   0  0  0  0  0  0  0  0  0  0  0  0
  -19.3116   42.1970  -23.3430 C   0  0  2  0  0  0  0  0  0  0  0  0
  -20.4084   42.3317  -22.3858 C   0  0  0  0  0  0  0  0  0  0  0  0
  -20.6474   41.3908  -21.5003 C   0  0  0  0  0  0  0  0  0  0  0  0
  -19.8861   40.2547  -21.4391 O   0  0  0  0  0  0  0  0  0  0  0  0
  -18.6273   40.1742  -22.0415 C   0  0  1  0  0  0  0  0  0  0  0  0
  -18.5018   39.0465  -22.8562 O   0  0  0  0  0  0  0  0  0  0  0  0
  -18.8564   37.8636  -22.2542 C   0  0  2  0  0  0  0  0  0  0  0  0
  -17.7207   37.1947  -21.8123 O   0  0  0  0  0  0  0  0  0  0  0  0
  -18.0254   35.9686  -21.2718 C   0  0  2  0  0  0  0  0  0  0  0  0
  -16.8001   35.3569  -20.6305 C   0  0  0  0  0  0  0  0  0  0  0  0
  -15.7833   35.1155  -21.5185 O   0  0  0  0  0  0  0  0  0  0  0  0
  -18.4089   35.0510  -22.4203 C   0  0  1  0  0  0  0  0  0  0  0  0
  -18.5291   33.7483  -22.0088 O   0  0  0  0  0  0  0  0  0  0  0  0
  -19.6541   35.6029  -23.0423 C   0  0  2  0  0  0  0  0  0  0  0  0
  -19.8787   34.9008  -24.2428 O   0  0  0  0  0  0  0  0  0  0  0  0
  -19.6753   37.0737  -23.2330 C   0  0  1  0  0  0  0  0  0  0  0  0
  -20.9919   37.5860  -23.1609 O   0  0  0  0  0  0  0  0  0  0  0  0
  -18.1664   41.4217  -22.7076 C   0  0  2  0  0  0  0  0  0  0  0  0
  1  2  1  0
  2  3  1  0
  3  4  2  0
  4  5  1  0
  5  6  1  6
  5  7  1  0
  7  8  1  1
  8  9  2  0
  9 10  1  0
 10 11  1  0
 11 12  1  6
 13 12  1  6
 13 14  1  0
 14 15  1  0
 15 16  1  6
 16 17  1  0
 15 18  1  0
 18 19  1  1
 18 20  1  0
 20 21  1  6
 20 22  1  0
 22 23  1  1
 11 24  1  0
 24  3  1  1
 24  7  1  0
 22 13  1  0
M  END
$$$$
