
     RDKit          3D

 20 20  0  0  0  0  0  0  0  0999 V2000
  -43.5141    6.8482  -41.7912 C   0  0  0  0  0  0  0  0  0  0  0  0
  -43.3599    7.7501  -42.9706 C   0  0  2  0  0  0  0  0  0  0  0  0
  -42.8396    9.0648  -42.5141 C   0  0  0  0  0  0  0  0  0  0  0  0
  -42.5581   10.1531  -43.2367 N   0  0  0  0  0  0  0  0  0  0  0  0
  -42.1101   11.1207  -42.4215 C   0  0  0  0  0  0  0  0  0  0  0  0
  -41.6841   12.4151  -42.6083 C   0  0  0  0  0  0  0  0  0  0  0  0
  -41.2687   13.1979  -41.5578 C   0  0  0  0  0  0  0  0  0  0  0  0
  -41.2658   12.7062  -40.2717 C   0  0  0  0  0  0  0  0  0  0  0  0
  -41.6905   11.4022  -40.0504 C   0  0  0  0  0  0  0  0  0  0  0  0
  -41.6959   10.8615  -38.6999 C   0  0  0  0  0  0  0  0  0  0  0  0
  -42.1051    9.5539  -38.3543 N   0  0  0  0  0  0  0  0  0  0  0  0
  -41.2892   11.6702  -37.7804 O   0  0  0  0  0  0  0  0  0  0  0  0
  -42.1080   10.6224  -41.1242 C   0  0  0  0  0  0  0  0  0  0  0  0
  -42.5593    9.3687  -41.2286 N   0  0  0  0  0  0  0  0  0  0  0  0
  -44.6825    8.0098  -43.6743 C   0  0  0  0  0  0  0  0  0  0  0  0
  -44.4698    7.4558  -45.0791 C   0  0  0  0  0  0  0  0  0  0  0  0
  -43.4031    6.4012  -44.8073 C   0  0  0  0  0  0  0  0  0  0  0  0
  -42.4832    7.1592  -43.9642 N   0  0  0  0  0  0  0  0  0  0  0  0
  -42.6439    9.7022  -41.5906 Cl  0  0  0  0  0  0  0  0  0  0  0  0
  -42.6427    9.7047  -41.5878 Cl  0  0  0  0  0  0  0  0  0  0  0  0
  2  1  1  1
  2  3  1  0
  3  4  2  0
  4  5  1  0
  5  6  2  0
  6  7  1  0
  7  8  2  0
  8  9  1  0
  9 10  1  0
 10 11  1  0
 10 12  2  0
  9 13  2  0
 13 14  1  0
  2 15  1  0
 15 16  1  0
 16 17  1  0
 17 18  1  0
 18  2  1  0
 14  3  1  0
 13  5  1  0
M  END
$$$$
