
     RDKit          3D

 15 16  0  0  0  0  0  0  0  0999 V2000
  -17.7454   41.7204  -19.9998 N   0  0  0  0  0  0  0  0  0  0  0  0
  -17.8377   40.5747  -20.8380 C   0  0  0  0  0  0  0  0  0  0  0  0
  -18.0269   40.7292  -22.1937 C   0  0  0  0  0  0  0  0  0  0  0  0
  -18.1161   39.6184  -23.0038 C   0  0  0  0  0  0  0  0  0  0  0  0
  -18.0178   38.4005  -22.4635 N   0  0  0  0  0  0  0  0  0  0  0  0
  -18.0968   37.1740  -23.2158 C   0  0  1  0  0  0  0  0  0  0  0  0
  -16.8932   36.3098  -22.8912 C   0  0  0  0  0  0  0  0  0  0  0  0
  -17.3799   35.0206  -23.5685 C   0  0  0  0  0  0  0  0  0  0  0  0
  -18.8221   35.0604  -23.1029 C   0  0  1  0  0  0  0  0  0  0  0  0
  -18.8632   34.2587  -21.7977 C   0  0  0  0  0  0  0  0  0  0  0  0
  -20.1497   33.7263  -21.6731 O   0  0  0  0  0  0  0  0  0  0  0  0
  -19.1463   36.3715  -22.8636 O   0  0  0  0  0  0  0  0  0  0  0  0
  -17.8327   38.2944  -21.1309 C   0  0  0  0  0  0  0  0  0  0  0  0
  -17.7352   37.1491  -20.5862 O   0  0  0  0  0  0  0  0  0  0  0  0
  -17.7419   39.3474  -20.3173 N   0  0  0  0  0  0  0  0  0  0  0  0
  1  2  1  0
  2  3  1  0
  3  4  2  0
  4  5  1  0
  6  5  1  1
  6  7  1  0
  7  8  1  0
  8  9  1  0
  9 10  1  1
 10 11  1  0
  9 12  1  0
  5 13  1  0
 13 14  2  0
 13 15  1  0
 15  2  2  0
 12  6  1  0
M  END
$$$$
