
     RDKit          3D

 14 14  0  0  0  0  0  0  0  0999 V2000
  -33.8998   16.9446  -28.4944 O   0  0  0  0  0  0  0  0  0  0  0  0
  -32.6052   17.4742  -28.5623 C   0  0  0  0  0  0  0  0  0  0  0  0
  -32.3589   18.5489  -27.5784 C   0  0  0  0  0  0  0  0  0  0  0  0
  -31.3017   19.4960  -27.9490 N   0  0  0  0  0  0  0  0  0  0  0  0
  -31.3808   19.5066  -29.4110 C   0  0  0  0  0  0  0  0  0  0  0  0
  -30.3653   20.3346  -30.0901 C   0  0  2  0  0  0  0  0  0  0  0  0
  -29.9818   19.6641  -31.2757 O   0  0  0  0  0  0  0  0  0  0  0  0
  -29.0932   20.4698  -29.2723 C   0  0  1  0  0  0  0  0  0  0  0  0
  -29.1937   21.5796  -28.4728 O   0  0  0  0  0  0  0  0  0  0  0  0
  -28.9134   19.1966  -28.5144 C   0  0  2  0  0  0  0  0  0  0  0  0
  -29.0189   18.0878  -29.3520 O   0  0  0  0  0  0  0  0  0  0  0  0
  -30.0310   19.0500  -27.4803 C   0  0  1  0  0  0  0  0  0  0  0  0
  -29.5261   19.6749  -26.2266 C   0  0  0  0  0  0  0  0  0  0  0  0
  -29.9740   18.8802  -25.1443 O   0  0  0  0  0  0  0  0  0  0  0  0
  1  2  1  0
  2  3  1  0
  3  4  1  0
  4  5  1  0
  5  6  1  0
  6  7  1  6
  6  8  1  0
  8  9  1  1
  8 10  1  0
 10 11  1  6
 10 12  1  0
 12 13  1  1
 13 14  1  0
 12  4  1  0
M  END
$$$$
