
     RDKit          3D

 27 30  0  0  0  0  0  0  0  0999 V2000
  -16.7098   14.1881  -33.4355 O   0  0  0  0  0  0  0  0  0  0  0  0
  -16.4789   15.4345  -33.2475 C   0  0  0  0  0  0  0  0  0  0  0  0
  -15.5300   15.7456  -32.2419 N   0  0  0  0  0  0  0  0  0  0  0  0
  -15.1038   14.7101  -31.3640 C   0  0  0  0  0  0  0  0  0  0  0  0
  -15.5601   14.6628  -30.0524 C   0  0  0  0  0  0  0  0  0  0  0  0
  -15.1621   13.6701  -29.1824 C   0  0  0  0  0  0  0  0  0  0  0  0
  -14.2916   12.6789  -29.5779 C   0  0  0  0  0  0  0  0  0  0  0  0
  -13.7713   11.4039  -28.4850 Cl  0  0  0  0  0  0  0  0  0  0  0  0
  -13.8313   12.7147  -30.8778 C   0  0  0  0  0  0  0  0  0  0  0  0
  -14.2326   13.7090  -31.7420 C   0  0  0  0  0  0  0  0  0  0  0  0
  -17.1664   16.4422  -34.0359 C   0  0  0  0  0  0  0  0  0  0  0  0
  -16.5480   16.9741  -35.1442 C   0  0  0  0  0  0  0  0  0  0  0  0
  -17.2034   17.9322  -35.8925 C   0  0  0  0  0  0  0  0  0  0  0  0
  -18.4682   18.3848  -35.5723 C   0  0  0  0  0  0  0  0  0  0  0  0
  -19.1185   19.4092  -36.4075 C   0  0  0  0  0  0  0  0  0  0  0  0
  -20.4822   19.0722  -36.6451 N   0  0  0  0  0  0  0  0  0  0  0  0
  -21.4290   20.1311  -36.5469 C   0  0  0  0  0  0  0  0  0  0  0  0
  -21.3709   21.0972  -37.7035 C   0  0  0  0  0  0  0  0  0  0  0  0
  -21.2714   20.3822  -38.9870 C   0  0  0  0  0  0  0  0  0  0  0  0
  -21.5253   21.0623  -40.1588 C   0  0  0  0  0  0  0  0  0  0  0  0
  -21.4525   20.4625  -41.3937 C   0  0  0  0  0  0  0  0  0  0  0  0
  -21.1112   19.1277  -41.4509 C   0  0  0  0  0  0  0  0  0  0  0  0
  -20.8568   18.4499  -40.2633 C   0  0  0  0  0  0  0  0  0  0  0  0
  -20.9345   19.0683  -39.0295 C   0  0  0  0  0  0  0  0  0  0  0  0
  -20.6477   18.2661  -37.8370 C   0  0  0  0  0  0  0  0  0  0  0  0
  -19.0818   17.8471  -34.4601 C   0  0  0  0  0  0  0  0  0  0  0  0
  -18.4202   16.8754  -33.6989 C   0  0  0  0  0  0  0  0  0  0  0  0
  1  2  2  0
  2  3  1  0
  3  4  1  0
  4  5  2  0
  5  6  1  0
  6  7  2  0
  7  8  1  0
  7  9  1  0
  9 10  2  0
  2 11  1  0
 11 12  2  0
 12 13  1  0
 13 14  2  0
 14 15  1  0
 15 16  1  0
 16 17  1  0
 17 18  1  0
 18 19  1  0
 19 20  2  0
 20 21  1  0
 21 22  2  0
 22 23  1  0
 23 24  2  0
 24 25  1  0
 14 26  1  0
 26 27  2  0
 10  4  1  0
 27 11  1  0
 25 16  1  0
 24 19  1  0
M  END
$$$$
