
     RDKit          3D

 23 25  0  0  0  0  0  0  0  0999 V2000
  -19.7754   33.9116  -22.2084 C   0  0  0  0  0  0  0  0  0  0  0  0
  -18.8890   35.1259  -22.2590 C   0  0  0  0  0  0  0  0  0  0  0  0
  -17.6979   35.1946  -21.6507 C   0  0  0  0  0  0  0  0  0  0  0  0
  -17.0967   36.8774  -22.0371 S   0  0  0  0  0  0  0  0  0  0  0  0
  -18.6591   37.2231  -23.0197 C   0  0  0  0  0  0  0  0  0  0  0  0
  -18.9645   38.8051  -23.8241 S   0  0  0  0  0  0  0  0  0  0  0  0
  -17.5315   39.8790  -23.6745 C   0  0  0  0  0  0  0  0  0  0  0  0
  -17.6795   40.7927  -22.5532 C   0  0  0  0  0  0  0  0  0  0  0  0
  -18.7707   40.6383  -21.8743 O   0  0  0  0  0  0  0  0  0  0  0  0
  -16.7665   41.8350  -22.1096 C   0  0  0  0  0  0  0  0  0  0  0  0
  -15.5330   42.2014  -22.5947 C   0  0  0  0  0  0  0  0  0  0  0  0
  -15.0302   43.2385  -21.7995 C   0  0  0  0  0  0  0  0  0  0  0  0
  -13.7164   43.9189  -21.9849 C   0  0  0  0  0  0  0  0  0  0  0  0
  -15.9251   43.5109  -20.8444 N   0  0  0  0  0  0  0  0  0  0  0  0
  -15.8126   44.5391  -19.7940 C   0  0  0  0  0  0  0  0  0  0  0  0
  -14.9265   44.2381  -18.7474 C   0  0  0  0  0  0  0  0  0  0  0  0
  -14.1940   45.0363  -17.8516 C   0  0  0  0  0  0  0  0  0  0  0  0
  -13.4101   44.5124  -16.9388 C   0  0  0  0  0  0  0  0  0  0  0  0
  -13.2960   43.1276  -16.8500 C   0  0  0  0  0  0  0  0  0  0  0  0
  -14.3898   42.5797  -18.1654 S   0  0  0  0  0  0  0  0  0  0  0  0
  -16.9654   42.6795  -21.0191 C   0  0  0  0  0  0  0  0  0  0  0  0
  -18.1834   42.6546  -20.1652 C   0  0  0  0  0  0  0  0  0  0  0  0
  -19.2270   36.2225  -22.9030 N   0  0  0  0  0  0  0  0  0  0  0  0
  1  2  1  0
  2  3  2  0
  3  4  1  0
  4  5  1  0
  5  6  1  0
  6  7  1  0
  7  8  1  0
  8  9  2  0
  8 10  1  0
 10 11  1  0
 11 12  2  0
 12 13  1  0
 12 14  1  0
 14 15  1  0
 15 16  1  0
 16 17  2  0
 17 18  1  0
 18 19  2  0
 19 20  1  0
 14 21  1  0
 21 22  1  0
  5 23  2  0
 23  2  1  0
 21 10  2  0
 20 16  1  0
M  END
$$$$
