
     RDKit          3D

 25 27  0  0  0  0  0  0  0  0999 V2000
  -17.4286   44.9742  -20.3017 C   0  0  0  0  0  0  0  0  0  0  0  0
  -16.5762   44.1372  -21.1644 N   0  0  0  0  0  0  0  0  0  0  0  0
  -17.2417   43.3022  -22.1312 C   0  0  0  0  0  0  0  0  0  0  0  0
  -17.0659   41.8768  -21.6880 C   0  0  0  0  0  0  0  0  0  0  0  0
  -18.0813   41.0035  -21.9524 O   0  0  0  0  0  0  0  0  0  0  0  0
  -18.1537   39.6777  -22.1976 C   0  0  0  0  0  0  0  0  0  0  0  0
  -17.5701   38.8108  -21.2620 C   0  0  0  0  0  0  0  0  0  0  0  0
  -17.5921   37.4429  -21.4260 C   0  0  0  0  0  0  0  0  0  0  0  0
  -18.1860   36.8653  -22.5130 C   0  0  0  0  0  0  0  0  0  0  0  0
  -18.2140   35.3959  -22.6930 C   0  0  0  0  0  0  0  0  0  0  0  0
  -19.4583   34.8487  -22.0768 C   0  0  0  0  0  0  0  0  0  0  0  0
  -19.2181   34.5090  -20.2845 S   0  0  0  0  0  0  0  0  0  0  0  0
  -20.0769   32.9125  -20.2570 C   0  0  0  0  0  0  0  0  0  0  0  0
  -20.2537   32.2067  -19.2169 O   0  0  0  0  0  0  0  0  0  0  0  0
  -20.4548   32.7040  -21.5993 N   0  0  0  0  0  0  0  0  0  0  0  0
  -19.7213   33.4399  -22.5320 C   0  0  0  0  0  0  0  0  0  0  0  0
  -19.2946   33.0398  -23.6460 O   0  0  0  0  0  0  0  0  0  0  0  0
  -18.7671   37.6820  -23.4497 C   0  0  0  0  0  0  0  0  0  0  0  0
  -18.7399   39.0614  -23.2756 C   0  0  0  0  0  0  0  0  0  0  0  0
  -15.1751   44.2257  -20.9752 C   0  0  0  0  0  0  0  0  0  0  0  0
  -14.2703   43.5087  -21.7183 C   0  0  0  0  0  0  0  0  0  0  0  0
  -12.9060   43.6132  -21.5175 C   0  0  0  0  0  0  0  0  0  0  0  0
  -12.4344   44.4583  -20.5472 C   0  0  0  0  0  0  0  0  0  0  0  0
  -13.3475   45.1708  -19.8094 C   0  0  0  0  0  0  0  0  0  0  0  0
  -14.6663   45.0567  -20.0179 N   0  0  0  0  0  0  0  0  0  0  0  0
  1  2  1  0
  2  3  1  0
  3  4  1  0
  4  5  1  0
  5  6  1  0
  6  7  2  0
  7  8  1  0
  8  9  2  0
  9 10  1  0
 10 11  1  0
 11 12  1  0
 12 13  1  0
 13 14  2  0
 13 15  1  0
 15 16  1  0
 16 17  2  0
  9 18  1  0
 18 19  2  0
  2 20  1  0
 20 21  2  0
 21 22  1  0
 22 23  2  0
 23 24  1  0
 24 25  2  0
 19  6  1  0
 25 20  1  0
 16 11  1  0
M  END
$$$$
