
     RDKit          3D

 32 36  0  0  0  0  0  0  0  0999 V2000
  -11.3935   41.4157  -16.1692 C   0  0  0  0  0  0  0  0  0  0  0  0
  -12.7579   41.8109  -16.3646 O   0  0  0  0  0  0  0  0  0  0  0  0
  -12.9713   43.1037  -16.8782 C   0  0  0  0  0  0  0  0  0  0  0  0
  -12.2882   44.1888  -16.3646 C   0  0  0  0  0  0  0  0  0  0  0  0
  -12.4589   45.4640  -16.8268 C   0  0  0  0  0  0  0  0  0  0  0  0
  -11.8110   46.6282  -16.3390 N   0  0  0  0  0  0  0  0  0  0  0  0
  -11.9352   47.8606  -17.0573 C   0  0  0  0  0  0  0  0  0  0  0  0
  -12.2729   48.9640  -16.0769 C   0  0  0  0  0  0  0  0  0  0  0  0
  -11.2991   49.0862  -15.0402 N   0  0  0  0  0  0  0  0  0  0  0  0
  -10.5675   50.3372  -15.0934 C   0  0  0  0  0  0  0  0  0  0  0  0
  -10.4550   47.9554  -14.8555 C   0  0  0  0  0  0  0  0  0  0  0  0
  -11.0324   46.6205  -15.1162 C   0  0  0  0  0  0  0  0  0  0  0  0
  -13.3784   45.6223  -17.8681 C   0  0  0  0  0  0  0  0  0  0  0  0
  -14.0706   44.5495  -18.3943 C   0  0  0  0  0  0  0  0  0  0  0  0
  -13.8893   43.2692  -17.9180 C   0  0  0  0  0  0  0  0  0  0  0  0
  -14.5643   42.1730  -18.4781 N   0  0  0  0  0  0  0  0  0  0  0  0
  -15.4754   42.1708  -19.5564 C   0  0  0  0  0  0  0  0  0  0  0  0
  -16.0594   40.9989  -19.9548 N   0  0  0  0  0  0  0  0  0  0  0  0
  -16.9547   40.9007  -20.9359 C   0  0  0  0  0  0  0  0  0  0  0  0
  -17.3229   42.0561  -21.5989 C   0  0  0  0  0  0  0  0  0  0  0  0
  -16.7528   43.2691  -21.2229 C   0  0  0  0  0  0  0  0  0  0  0  0
  -17.2002   44.4690  -21.9243 C   0  0  0  0  0  0  0  0  0  0  0  0
  -18.0108   44.5570  -23.0330 C   0  0  0  0  0  0  0  0  0  0  0  0
  -18.2058   45.8437  -23.3600 N   0  0  0  0  0  0  0  0  0  0  0  0
  -19.0337   46.2477  -24.5056 C   0  0  0  0  0  0  0  0  0  0  0  0
  -17.5553   46.6270  -22.5110 C   0  0  0  0  0  0  0  0  0  0  0  0
  -17.4645   48.0052  -22.4444 C   0  0  0  0  0  0  0  0  0  0  0  0
  -16.7305   48.5371  -21.4597 N   0  0  0  0  0  0  0  0  0  0  0  0
  -16.0936   47.7593  -20.5525 C   0  0  0  0  0  0  0  0  0  0  0  0
  -16.1834   46.3927  -20.6179 C   0  0  0  0  0  0  0  0  0  0  0  0
  -16.9193   45.7921  -21.6039 C   0  0  0  0  0  0  0  0  0  0  0  0
  -15.8613   43.2682  -20.2260 N   0  0  0  0  0  0  0  0  0  0  0  0
  1  2  1  0
  2  3  1  0
  3  4  2  0
  4  5  1  0
  5  6  1  0
  6  7  1  0
  7  8  1  0
  8  9  1  0
  9 10  1  0
  9 11  1  0
 11 12  1  0
  5 13  2  0
 13 14  1  0
 14 15  2  0
 15 16  1  0
 16 17  1  0
 17 18  2  0
 18 19  1  0
 19 20  2  0
 20 21  1  0
 21 22  1  0
 22 23  2  0
 23 24  1  0
 24 25  1  0
 24 26  1  0
 26 27  2  0
 27 28  1  0
 28 29  2  0
 29 30  1  0
 30 31  2  0
 21 32  2  0
 15  3  1  0
 32 17  1  0
 12  6  1  0
 31 22  1  0
 31 26  1  0
M  END
$$$$
