
     RDKit          3D

 20 22  0  0  0  0  0  0  0  0999 V2000
  -15.3504   36.7277  -21.3936 O   0  0  0  0  0  0  0  0  0  0  0  0
  -16.5294   36.3237  -21.4392 N   0  0  0  0  0  4  0  0  0  0  0  0
  -16.7934   35.0749  -20.9342 O   0  0  0  0  0  1  0  0  0  0  0  0
  -17.5415   37.1515  -22.0012 C   0  0  0  0  0  0  0  0  0  0  0  0
  -17.2310   38.4210  -22.4804 C   0  0  0  0  0  0  0  0  0  0  0  0
  -18.2015   39.2392  -23.0294 C   0  0  0  0  0  0  0  0  0  0  0  0
  -19.5178   38.7881  -23.1064 C   0  0  0  0  0  0  0  0  0  0  0  0
  -20.7249   39.8779  -23.8198 S   0  0  0  0  0  0  0  0  0  0  0  0
  -20.9747   39.4437  -25.5512 C   0  0  0  0  0  0  0  0  0  0  0  0
  -20.2421   38.4270  -26.1290 C   0  0  0  0  0  0  0  0  0  0  0  0
  -20.4423   38.1015  -27.4664 C   0  0  0  0  0  0  0  0  0  0  0  0
  -21.3662   38.7804  -28.2340 C   0  0  0  0  0  0  0  0  0  0  0  0
  -22.0766   39.7895  -27.6168 C   0  0  0  0  0  0  0  0  0  0  0  0
  -21.8681   40.0924  -26.3126 N   0  0  0  0  0  4  0  0  0  0  0  0
  -22.5833   41.1101  -25.6873 O   0  0  0  0  0  1  0  0  0  0  0  0
  -19.8216   37.5357  -22.6331 C   0  0  0  0  0  0  0  0  0  0  0  0
  -20.9640   36.8404  -22.5700 N   0  0  0  0  0  0  0  0  0  0  0  0
  -20.7153   35.6855  -22.0247 O   0  0  0  0  0  0  0  0  0  0  0  0
  -19.4511   35.5814  -21.7210 N   0  0  0  0  0  0  0  0  0  0  0  0
  -18.8557   36.7215  -22.0868 C   0  0  0  0  0  0  0  0  0  0  0  0
  1  2  2  0
  2  3  1  0
  2  4  1  0
  4  5  2  0
  5  6  1  0
  6  7  2  0
  7  8  1  0
  8  9  1  0
  9 10  2  0
 10 11  1  0
 11 12  2  0
 12 13  1  0
 13 14  2  0
 14 15  1  0
  7 16  1  0
 16 17  2  0
 17 18  1  0
 18 19  1  0
 19 20  2  0
 20  4  1  0
 14  9  1  0
 20 16  1  0
M  CHG  4   2   1   3  -1  14   1  15  -1
M  END
$$$$
