
     RDKit          3D

 35 36  0  0  0  0  0  0  0  0999 V2000
  -18.8558   42.7965  -20.9824 Cl  0  0  0  0  0  0  0  0  0  0  0  0
  -18.8560   42.8024  -20.9793 Cl  0  0  0  0  0  0  0  0  0  0  0  0
  -22.3151   47.4023  -14.2229 F   0  0  0  0  0  0  0  0  0  0  0  0
  -21.5759   47.4025  -15.3778 C   0  0  0  0  0  0  0  0  0  0  0  0
  -22.1254   47.7601  -16.5873 C   0  0  0  0  0  0  0  0  0  0  0  0
  -21.3986   47.7652  -17.7441 C   0  0  0  0  0  0  0  0  0  0  0  0
  -20.0537   47.4029  -17.7405 C   0  0  0  0  0  0  0  0  0  0  0  0
  -19.2793   47.4131  -19.0173 C   0  0  0  0  0  0  0  0  0  0  0  0
  -18.5238   46.2533  -19.0716 O   0  0  0  0  0  0  0  0  0  0  0  0
  -19.0249   45.4496  -20.0981 C   0  0  0  0  0  0  0  0  0  0  0  0
  -18.1674   44.2208  -20.2323 C   0  0  0  0  0  0  0  0  0  0  0  0
  -18.6518   43.3535  -21.2823 N   0  0  0  0  0  0  0  0  0  0  0  0
  -17.7172   42.3191  -21.6201 C   0  0  0  0  0  0  0  0  0  0  0  0
  -18.0756   41.0616  -20.9437 C   0  0  0  0  0  0  0  0  0  0  0  0
  -19.3293   40.5867  -21.3447 N   0  0  0  0  0  0  0  0  0  0  0  0
  -19.4468   39.5878  -22.3198 C   0  0  0  0  0  0  0  0  0  0  0  0
  -19.1056   39.9057  -23.7276 C   0  0  0  0  0  0  0  0  0  0  0  0
  -19.3281   38.7049  -24.6215 C   0  0  0  0  0  0  0  0  0  0  0  0
  -18.5119   37.5381  -24.2972 C   0  0  0  0  0  0  0  0  0  0  0  0
  -17.2799   37.2730  -24.8555 C   0  0  0  0  0  0  0  0  0  0  0  0
  -16.5592   36.1548  -24.4971 C   0  0  0  0  0  0  0  0  0  0  0  0
  -17.0478   35.2586  -23.5644 C   0  0  0  0  0  0  0  0  0  0  0  0
  -18.2735   35.5224  -23.0081 C   0  0  0  0  0  0  0  0  0  0  0  0
  -18.9927   36.6369  -23.3644 C   0  0  0  0  0  0  0  0  0  0  0  0
  -20.3842   41.5549  -21.3205 C   0  0  0  0  0  0  0  0  0  0  0  0
  -19.9929   42.9542  -21.1398 C   0  0  0  0  0  0  0  0  0  0  0  0
  -18.4547   48.6266  -19.1471 C   0  0  0  0  0  0  0  0  0  0  0  0
  -18.6629   49.7186  -18.3349 C   0  0  0  0  0  0  0  0  0  0  0  0
  -17.8520   50.8531  -18.4817 C   0  0  0  0  0  0  0  0  0  0  0  0
  -16.8421   50.9047  -19.4274 C   0  0  0  0  0  0  0  0  0  0  0  0
  -16.0747   52.0184  -19.5440 F   0  0  0  0  0  0  0  0  0  0  0  0
  -16.6554   49.7983  -20.2279 C   0  0  0  0  0  0  0  0  0  0  0  0
  -17.4616   48.6693  -20.0817 C   0  0  0  0  0  0  0  0  0  0  0  0
  -19.4734   47.0403  -16.5485 C   0  0  0  0  0  0  0  0  0  0  0  0
  -20.2310   47.0410  -15.3787 C   0  0  0  0  0  0  0  0  0  0  0  0
  3  4  1  0
  4  5  2  0
  5  6  1  0
  6  7  2  0
  7  8  1  0
  8  9  1  0
  9 10  1  0
 10 11  1  0
 11 12  1  0
 12 13  1  0
 13 14  1  0
 14 15  1  0
 15 16  1  0
 16 17  1  0
 17 18  1  0
 18 19  1  0
 19 20  2  0
 20 21  1  0
 21 22  2  0
 22 23  1  0
 23 24  2  0
 15 25  1  0
 25 26  1  0
  8 27  1  0
 27 28  2  0
 28 29  1  0
 29 30  2  0
 30 31  1  0
 30 32  1  0
 32 33  2  0
  7 34  1  0
 34 35  2  0
 35  4  1  0
 26 12  1  0
 33 27  1  0
 24 19  1  0
M  END
$$$$
