
     RDKit          3D

 35 38  0  0  0  0  0  0  0  0999 V2000
  -14.4539   19.8629  -35.7864 C   0  0  0  0  0  0  0  0  0  0  0  0
  -15.7416   19.7445  -35.0236 C   0  0  1  0  0  0  0  0  0  0  0  0
  -16.8054   19.3555  -35.7543 O   0  0  0  0  0  0  0  0  0  0  0  0
  -17.4804   18.2750  -35.3232 C   0  0  0  0  0  0  0  0  0  0  0  0
  -18.8002   18.0638  -36.0091 C   0  0  1  0  0  0  0  0  0  0  0  0
  -19.4074   16.8597  -35.4041 C   0  0  0  0  0  0  0  0  0  0  0  0
  -20.1831   16.8755  -34.2653 C   0  0  0  0  0  0  0  0  0  0  0  0
  -20.7364   15.7033  -33.7684 C   0  0  0  0  0  0  0  0  0  0  0  0
  -20.5511   14.4845  -34.3641 C   0  0  0  0  0  0  0  0  0  0  0  0
  -19.7790   14.4594  -35.5006 C   0  0  0  0  0  0  0  0  0  0  0  0
  -19.2143   15.6435  -36.0114 C   0  0  0  0  0  0  0  0  0  0  0  0
  -19.7398   19.2474  -35.6997 C   0  0  0  0  0  0  0  0  0  0  0  0
  -21.0529   18.9098  -36.3698 C   0  0  0  0  0  0  0  0  0  0  0  0
  -20.8443   18.9735  -37.8687 C   0  0  1  0  0  0  0  0  0  0  0  0
  -21.4709   17.7977  -38.5783 C   0  0  0  0  0  0  0  0  0  0  0  0
  -21.4998   18.2815  -40.0173 C   0  0  0  0  0  0  0  0  0  0  0  0
  -21.6897   19.7528  -39.8454 C   0  0  0  0  0  0  0  0  0  0  0  0
  -21.9420   20.6129  -40.7426 O   0  0  0  0  0  0  0  0  0  0  0  0
  -21.5443   20.0953  -38.4650 N   0  0  0  0  0  0  0  0  0  0  0  0
  -19.3836   19.0460  -38.1586 C   0  0  0  0  0  0  0  0  0  0  0  0
  -18.6768   18.0435  -37.4035 N   0  0  0  0  0  0  0  0  0  0  0  0
  -15.5092   18.5870  -34.0414 C   0  0  0  0  0  0  0  0  0  0  0  0
  -15.8256   18.6805  -32.7273 C   0  0  0  0  0  0  0  0  0  0  0  0
  -15.6257   17.6483  -31.8170 C   0  0  0  0  0  0  0  0  0  0  0  0
  -15.9809   17.7744  -30.3799 C   0  0  0  0  0  0  0  0  0  0  0  0
  -16.3905   19.0292  -30.0531 F   0  0  0  0  0  0  0  0  0  0  0  0
  -14.8441   17.3912  -29.6625 F   0  0  0  0  0  0  0  0  0  0  0  0
  -16.9361   16.7992  -30.1105 F   0  0  0  0  0  0  0  0  0  0  0  0
  -15.0745   16.4941  -32.3332 C   0  0  0  0  0  0  0  0  0  0  0  0
  -14.7389   16.3702  -33.6822 C   0  0  0  0  0  0  0  0  0  0  0  0
  -14.1496   15.1214  -34.2074 C   0  0  0  0  0  0  0  0  0  0  0  0
  -15.1419   14.2476  -34.6657 F   0  0  0  0  0  0  0  0  0  0  0  0
  -13.2645   15.3418  -35.2402 F   0  0  0  0  0  0  0  0  0  0  0  0
  -13.4645   14.4312  -33.2286 F   0  0  0  0  0  0  0  0  0  0  0  0
  -14.9634   17.4428  -34.5499 C   0  0  0  0  0  0  0  0  0  0  0  0
  2  1  1  6
  2  3  1  0
  3  4  1  0
  5  4  1  1
  5  6  1  0
  6  7  2  0
  7  8  1  0
  8  9  2  0
  9 10  1  0
 10 11  2  0
  5 12  1  0
 12 13  1  0
 14 13  1  1
 14 15  1  0
 15 16  1  0
 16 17  1  0
 17 18  2  0
 17 19  1  0
 14 20  1  0
 20 21  1  0
  2 22  1  0
 22 23  2  0
 23 24  1  0
 24 25  1  0
 25 26  1  0
 25 27  1  0
 25 28  1  0
 24 29  2  0
 29 30  1  0
 30 31  1  0
 31 32  1  0
 31 33  1  0
 31 34  1  0
 30 35  2  0
 21  5  1  0
 35 22  1  0
 11  6  1  0
 19 14  1  0
M  END
$$$$
