
     RDKit          3D

 14 14  0  0  0  0  0  0  0  0999 V2000
  -18.9134   37.6620  -21.7458 Cl  0  0  0  0  0  0  0  0  0  0  0  0
  -21.3095   35.5312  -22.4292 N   0  0  0  0  0  0  0  0  0  0  0  0
  -20.2725   36.5124  -22.5804 C   0  0  0  0  0  0  0  0  0  0  0  0
  -19.0581   36.1884  -21.7126 C   0  0  0  0  0  0  0  0  0  0  0  0
  -18.0762   37.2682  -21.9702 C   0  0  0  0  0  0  0  0  0  0  0  0
  -16.9646   37.2270  -22.7793 C   0  0  0  0  0  0  0  0  0  0  0  0
  -16.3522   38.4233  -22.7422 N   0  0  0  0  0  0  0  0  0  0  0  0
  -17.0277   39.2515  -21.9314 C   0  0  0  0  0  0  0  0  0  0  0  0
  -16.7695   40.5621  -21.5915 C   0  0  0  0  0  0  0  0  0  0  0  0
  -17.6245   41.2294  -20.7117 C   0  0  0  0  0  0  0  0  0  0  0  0
  -18.7111   40.5274  -20.2145 C   0  0  0  0  0  0  0  0  0  0  0  0
  -19.5731   41.1628  -19.3415 O   0  0  0  0  0  0  0  0  0  0  0  0
  -18.9515   39.2185  -20.5670 C   0  0  0  0  0  0  0  0  0  0  0  0
  -18.1221   38.5398  -21.4328 C   0  0  0  0  0  0  0  0  0  0  0  0
  2  3  1  0
  3  4  1  0
  4  5  1  0
  5  6  2  0
  6  7  1  0
  7  8  1  0
  8  9  2  0
  9 10  1  0
 10 11  2  0
 11 12  1  0
 11 13  1  0
 13 14  2  0
 14  5  1  0
 14  8  1  0
M  END
$$$$
