
     RDKit          3D

 24 26  0  0  0  0  0  0  0  0999 V2000
  -19.3435   40.7020  -24.4582 O   0  0  0  0  0  0  0  0  0  0  0  0
  -18.4985   40.5401  -23.5434 C   0  0  0  0  0  0  0  0  0  0  0  0
  -18.0401   39.2616  -23.2966 O   0  0  0  0  0  0  0  0  0  0  0  0
  -18.0741   38.2335  -24.2228 C   0  0  0  0  0  0  0  0  0  0  0  0
  -17.4810   36.9735  -23.6706 C   0  0  0  0  0  0  0  0  0  0  0  0
  -18.3816   36.3294  -22.7503 N   0  0  0  0  0  0  0  0  0  0  0  0
  -18.5779   36.5131  -21.3786 C   0  0  0  0  0  0  0  0  0  0  0  0
  -17.9795   37.3071  -20.6144 O   0  0  0  0  0  0  0  0  0  0  0  0
  -19.6451   35.5861  -20.9482 C   0  0  0  0  0  0  0  0  0  0  0  0
  -20.2301   35.3520  -19.7141 C   0  0  0  0  0  0  0  0  0  0  0  0
  -21.2357   34.4191  -19.5244 C   0  0  0  0  0  0  0  0  0  0  0  0
  -21.6534   33.7077  -20.6256 C   0  0  0  0  0  0  0  0  0  0  0  0
  -21.0897   33.9203  -21.8627 C   0  0  0  0  0  0  0  0  0  0  0  0
  -20.0777   34.8650  -22.0319 C   0  0  0  0  0  0  0  0  0  0  0  0
  -19.3060   35.3058  -23.1797 C   0  0  0  0  0  0  0  0  0  0  0  0
  -19.4413   34.8536  -24.3439 O   0  0  0  0  0  0  0  0  0  0  0  0
  -17.9973   41.6432  -22.7495 C   0  0  0  0  0  0  0  0  0  0  0  0
  -18.2617   42.9296  -23.1561 C   0  0  0  0  0  0  0  0  0  0  0  0
  -17.8016   44.0267  -22.4268 C   0  0  0  0  0  0  0  0  0  0  0  0
  -17.0724   43.7420  -21.2842 C   0  0  0  0  0  0  0  0  0  0  0  0
  -16.4873   45.1156  -20.3570 Cl  0  0  0  0  0  0  0  0  0  0  0  0
  -16.8023   42.4704  -20.8685 C   0  0  0  0  0  0  0  0  0  0  0  0
  -15.8680   42.2214  -19.4037 Cl  0  0  0  0  0  0  0  0  0  0  0  0
  -17.2669   41.4169  -21.6047 C   0  0  0  0  0  0  0  0  0  0  0  0
  1  2  2  0
  2  3  1  0
  3  4  1  0
  4  5  1  0
  5  6  1  0
  6  7  1  0
  7  8  2  0
  7  9  1  0
  9 10  2  0
 10 11  1  0
 11 12  2  0
 12 13  1  0
 13 14  2  0
 14 15  1  0
 15 16  2  0
  2 17  1  0
 17 18  2  0
 18 19  1  0
 19 20  2  0
 20 21  1  0
 20 22  1  0
 22 23  1  0
 22 24  2  0
 15  6  1  0
 24 17  1  0
 14  9  1  0
M  END
$$$$
