
     RDKit          3D

 24 26  0  0  0  0  0  0  0  0999 V2000
  -29.9545   23.4490  -30.3021 C   0  0  0  0  0  0  0  0  0  0  0  0
  -28.6199   23.0492  -30.2761 O   0  0  0  0  0  0  0  0  0  0  0  0
  -28.2178   21.9254  -29.5985 C   0  0  0  0  0  0  0  0  0  0  0  0
  -28.2303   21.8428  -28.2230 C   0  0  0  0  0  0  0  0  0  0  0  0
  -27.8172   20.6851  -27.5494 C   0  0  0  0  0  0  0  0  0  0  0  0
  -27.3851   19.5955  -28.2766 C   0  0  0  0  0  0  0  0  0  0  0  0
  -27.0030   18.3544  -27.6105 N   0  0  0  0  0  0  0  0  0  0  0  0
  -27.8816   17.3138  -27.2783 C   0  0  0  0  0  0  0  0  0  0  0  0
  -29.1330   17.3350  -27.5724 O   0  0  0  0  0  0  0  0  0  0  0  0
  -27.2963   16.1924  -26.5783 C   0  0  0  0  0  0  0  0  0  0  0  0
  -27.8867   15.2828  -25.8293 C   0  0  0  0  0  0  0  0  0  0  0  0
  -29.3296   15.2093  -25.6754 C   0  0  0  0  0  0  0  0  0  0  0  0
  -29.8785   14.2162  -24.8842 C   0  0  0  0  0  0  0  0  0  0  0  0
  -31.2398   14.0844  -24.6796 C   0  0  0  0  0  0  0  0  0  0  0  0
  -32.1183   14.9529  -25.2659 C   0  0  0  0  0  0  0  0  0  0  0  0
  -33.4868   14.9007  -25.1232 O   0  0  0  0  0  0  0  0  0  0  0  0
  -31.5914   15.9615  -26.0655 C   0  0  0  0  0  0  0  0  0  0  0  0
  -32.7287   17.2453  -26.9384 Br  0  0  0  0  0  0  0  0  0  0  0  0
  -30.2326   16.0746  -26.2559 C   0  0  0  0  0  0  0  0  0  0  0  0
  -25.5521   16.3457  -26.9745 S   0  0  0  0  0  0  0  0  0  0  0  0
  -25.6550   18.1570  -27.2098 C   0  0  0  0  0  0  0  0  0  0  0  0
  -24.4491   19.2158  -26.9724 S   0  0  0  0  0  0  0  0  0  0  0  0
  -27.3825   19.7057  -29.6466 C   0  0  0  0  0  0  0  0  0  0  0  0
  -27.7842   20.8318  -30.3060 C   0  0  0  0  0  0  0  0  0  0  0  0
  1  2  1  0
  2  3  1  0
  3  4  2  0
  4  5  1  0
  5  6  2  0
  6  7  1  0
  7  8  1  0
  8  9  2  0
  8 10  1  0
 10 11  2  0
 11 12  1  0
 12 13  2  0
 13 14  1  0
 14 15  2  0
 15 16  1  0
 15 17  1  0
 17 18  1  0
 17 19  2  0
 10 20  1  0
 20 21  1  0
 21 22  2  0
  6 23  1  0
 23 24  2  0
 24  3  1  0
 21  7  1  0
 19 12  1  0
M  END
$$$$
