
     RDKit          3D

 26 29  0  0  0  0  0  0  0  0999 V2000
  -17.5703   43.1789  -22.5109 C   0  0  0  0  0  0  0  0  0  0  0  0
  -17.3138   42.3094  -21.4304 O   0  0  0  0  0  0  0  0  0  0  0  0
  -17.7708   40.9853  -21.4487 C   0  0  0  0  0  0  0  0  0  0  0  0
  -17.5934   40.1913  -20.3796 N   0  0  0  0  0  0  0  0  0  0  0  0
  -18.0185   38.9354  -20.3767 C   0  0  0  0  0  0  0  0  0  0  0  0
  -18.6622   38.3909  -21.4743 C   0  0  0  0  0  0  0  0  0  0  0  0
  -18.8461   39.2039  -22.5739 C   0  0  0  0  0  0  0  0  0  0  0  0
  -19.5397   38.6568  -23.7214 C   0  0  0  0  0  0  0  0  0  0  0  0
  -19.5420   37.2946  -23.9941 C   0  0  0  0  0  0  0  0  0  0  0  0
  -18.8811   36.2774  -23.1911 C   0  0  0  0  0  0  0  0  0  0  0  0
  -17.5311   36.3952  -22.9297 C   0  0  0  0  0  0  0  0  0  0  0  0
  -16.8294   35.4669  -22.1709 C   0  0  0  0  0  0  0  0  0  0  0  0
  -17.4952   34.3809  -21.6529 C   0  0  0  0  0  0  0  0  0  0  0  0
  -16.8605   33.4524  -20.9103 F   0  0  0  0  0  0  0  0  0  0  0  0
  -18.8453   34.2621  -21.9137 C   0  0  0  0  0  0  0  0  0  0  0  0
  -19.5344   35.1904  -22.6693 C   0  0  0  0  0  0  0  0  0  0  0  0
  -20.2629   37.1646  -25.1162 N   0  0  0  0  0  0  0  0  0  0  0  0
  -20.6818   38.3776  -25.5140 C   0  0  0  0  0  0  0  0  0  0  0  0
  -20.2259   39.3164  -24.6354 N   0  0  0  0  0  0  0  0  0  0  0  0
  -20.4956   40.6909  -24.7908 C   0  0  0  0  0  0  0  0  0  0  0  0
  -21.9238   41.1066  -24.8412 C   0  0  0  0  0  0  0  0  0  0  0  0
  -21.9391   42.6410  -24.9154 C   0  0  0  0  0  0  0  0  0  0  0  0
  -20.5956   43.1556  -24.7257 N   0  0  0  0  0  0  0  0  0  0  0  0
  -19.7879   42.7612  -25.8880 C   0  0  0  0  0  0  0  0  0  0  0  0
  -19.8408   41.2534  -26.0493 C   0  0  0  0  0  0  0  0  0  0  0  0
  -18.3895   40.4635  -22.5047 N   0  0  0  0  0  0  0  0  0  0  0  0
  1  2  1  0
  2  3  1  0
  3  4  2  0
  4  5  1  0
  5  6  2  0
  6  7  1  0
  7  8  1  0
  8  9  2  0
  9 10  1  0
 10 11  2  0
 11 12  1  0
 12 13  2  0
 13 14  1  0
 13 15  1  0
 15 16  2  0
  9 17  1  0
 17 18  2  0
 18 19  1  0
 19 20  1  0
 20 21  1  0
 21 22  1  0
 22 23  1  0
 23 24  1  0
 24 25  1  0
  7 26  2  0
 26  3  1  0
 19  8  1  0
 25 20  1  0
 16 10  1  0
M  END
$$$$
