
     RDKit          3D

 37 40  0  0  0  0  0  0  0  0999 V2000
  -27.7166   23.0996  -29.4955 C   0  0  0  0  0  0  0  0  0  0  0  0
  -29.0881   23.3724  -29.1404 N   0  0  0  0  0  0  0  0  0  0  0  0
  -29.8870   22.5318  -28.3193 C   0  0  0  0  0  0  0  0  0  0  0  0
  -31.2368   22.8377  -28.1422 C   0  0  0  0  0  0  0  0  0  0  0  0
  -32.0432   22.0668  -27.3585 C   0  0  0  0  0  0  0  0  0  0  0  0
  -31.4984   20.9505  -26.7246 C   0  0  0  0  0  0  0  0  0  0  0  0
  -30.1805   20.6133  -26.8697 C   0  0  0  0  0  0  0  0  0  0  0  0
  -29.5127   19.5386  -26.2561 N   0  0  0  0  0  0  0  0  0  0  0  0
  -29.4131   18.2356  -26.8033 C   0  0  0  0  0  0  0  0  0  0  0  0
  -30.3624   17.4276  -26.7747 O   0  0  0  0  0  0  0  0  0  0  0  0
  -28.2020   17.7486  -27.4321 N   0  0  0  0  0  0  0  0  0  0  0  0
  -26.9392   18.2537  -27.0362 C   0  0  2  0  0  0  0  0  0  0  0  0
  -26.2072   18.8665  -28.1349 N   0  0  0  0  0  0  0  0  0  0  0  0
  -25.6165   18.1959  -29.0952 C   0  0  0  0  0  0  0  0  0  0  0  0
  -24.9492   19.0297  -30.0660 C   0  0  0  0  0  0  0  0  0  0  0  0
  -23.9514   18.6592  -30.9148 C   0  0  0  0  0  0  0  0  0  0  0  0
  -23.4231   19.5114  -31.8754 C   0  0  0  0  0  0  0  0  0  0  0  0
  -23.9051   20.7833  -31.9935 C   0  0  0  0  0  0  0  0  0  0  0  0
  -24.9189   21.1672  -31.1305 C   0  0  0  0  0  0  0  0  0  0  0  0
  -25.3962   20.3163  -30.2252 N   0  0  0  0  0  0  0  0  0  0  0  0
  -25.6234   16.7473  -29.3209 C   0  0  0  0  0  0  0  0  0  0  0  0
  -25.6642   16.4113  -30.6412 C   0  0  0  0  0  0  0  0  0  0  0  0
  -25.6002   15.0719  -30.9535 C   0  0  0  0  0  0  0  0  0  0  0  0
  -25.4995   14.0884  -29.9703 C   0  0  0  0  0  0  0  0  0  0  0  0
  -25.4631   14.4291  -28.6391 C   0  0  0  0  0  0  0  0  0  0  0  0
  -25.5289   15.7645  -28.3271 C   0  0  0  0  0  0  0  0  0  0  0  0
  -25.5888   16.0067  -26.9134 N   0  0  0  0  0  0  0  0  0  0  0  0
  -25.0933   14.9855  -26.0627 C   0  0  0  0  0  0  0  0  0  0  0  0
  -26.1161   14.0010  -25.5819 C   0  0  0  0  0  0  0  0  0  0  0  0
  -27.2477   13.9972  -25.9622 O   0  0  0  0  0  0  0  0  0  0  0  0
  -25.6527   13.0099  -24.5928 C   0  0  0  0  0  0  0  0  0  0  0  0
  -24.6462   12.0923  -25.2665 C   0  0  0  0  0  0  0  0  0  0  0  0
  -26.7983   12.1790  -24.0423 C   0  0  0  0  0  0  0  0  0  0  0  0
  -25.0451   13.7353  -23.4201 C   0  0  0  0  0  0  0  0  0  0  0  0
  -26.1191   17.2324  -26.3395 C   0  0  0  0  0  0  0  0  0  0  0  0
  -25.8299   17.3985  -25.1355 O   0  0  0  0  0  0  0  0  0  0  0  0
  -29.3973   21.4378  -27.6852 C   0  0  0  0  0  0  0  0  0  0  0  0
  1  2  1  0
  2  3  1  0
  3  4  2  0
  4  5  1  0
  5  6  2  0
  6  7  1  0
  7  8  1  0
  8  9  1  0
  9 10  2  0
  9 11  1  0
 12 11  1  6
 12 13  1  0
 13 14  2  0
 14 15  1  0
 15 16  2  0
 16 17  1  0
 17 18  2  0
 18 19  1  0
 19 20  2  0
 14 21  1  0
 21 22  2  0
 22 23  1  0
 23 24  2  0
 24 25  1  0
 25 26  2  0
 26 27  1  0
 27 28  1  0
 28 29  1  0
 29 30  2  0
 29 31  1  0
 31 32  1  0
 31 33  1  0
 31 34  1  0
 27 35  1  0
 35 36  2  0
  7 37  2  0
 37  3  1  0
 35 12  1  0
 20 15  1  0
 26 21  1  0
M  END
$$$$
