
     RDKit          3D

 26 28  0  0  0  0  0  0  0  0999 V2000
  -18.1278   44.2958  -21.1963 C   0  0  0  0  0  0  0  0  0  0  0  0
  -16.8451   43.5582  -20.9003 C   0  0  0  0  0  0  0  0  0  0  0  0
  -15.7409   44.5498  -20.6258 C   0  0  0  0  0  0  0  0  0  0  0  0
  -16.4946   42.6111  -22.0166 C   0  0  0  0  0  0  0  0  0  0  0  0
  -17.2237   41.3439  -21.8658 C   0  0  0  0  0  0  0  0  0  0  0  0
  -18.4656   41.3146  -22.0616 O   0  0  0  0  0  0  0  0  0  0  0  0
  -16.5704   40.1338  -21.5025 N   0  0  0  0  0  0  0  0  0  0  0  0
  -17.3618   38.9466  -21.3567 C   0  0  0  0  0  0  0  0  0  0  0  0
  -17.8185   38.4146  -20.2120 N   0  0  0  0  0  0  0  0  0  0  0  0
  -18.5117   37.3199  -20.4652 N   0  0  0  0  0  0  0  0  0  0  0  0
  -18.5317   37.1009  -21.7728 C   0  0  0  0  0  0  0  0  0  0  0  0
  -17.8141   38.1104  -22.3676 C   0  0  0  0  0  0  0  0  0  0  0  0
  -17.7929   37.9341  -23.8344 C   0  0  0  0  0  0  0  0  0  0  0  0
  -19.0372   37.1266  -23.9948 N   0  0  0  0  0  0  0  0  0  0  0  0
  -19.9400   37.3201  -25.0463 C   0  0  0  0  0  0  0  0  0  0  0  0
  -20.8263   36.4008  -25.1928 O   0  0  0  0  0  0  0  0  0  0  0  0
  -20.0180   38.4267  -26.0036 C   0  0  0  0  0  0  0  0  0  0  0  0
  -21.3046   39.2380  -25.7156 C   0  0  0  0  0  0  0  0  0  0  0  0
  -21.3633   40.2814  -26.8276 C   0  0  0  0  0  0  0  0  0  0  0  0
  -21.7617   39.6509  -28.0743 N   0  0  0  0  0  0  0  0  0  0  0  0
  -21.2102   40.3283  -29.2232 C   0  0  0  0  0  0  0  0  0  0  0  0
  -21.4735   38.2315  -28.0606 C   0  0  0  0  0  0  0  0  0  0  0  0
  -20.1259   37.9381  -27.4347 C   0  0  0  0  0  0  0  0  0  0  0  0
  -18.9941   36.2262  -22.9261 C   0  0  0  0  0  0  0  0  0  0  0  0
  -17.8491   35.2433  -23.1775 C   0  0  0  0  0  0  0  0  0  0  0  0
  -20.2202   35.5478  -22.4593 C   0  0  0  0  0  0  0  0  0  0  0  0
  1  2  1  0
  2  3  1  0
  2  4  1  0
  4  5  1  0
  5  6  2  0
  5  7  1  0
  7  8  1  0
  8  9  2  0
  9 10  1  0
 10 11  1  0
 11 12  2  0
 12 13  1  0
 13 14  1  0
 14 15  1  0
 15 16  2  0
 15 17  1  0
 17 18  1  0
 18 19  1  0
 19 20  1  0
 20 21  1  0
 20 22  1  0
 22 23  1  0
 14 24  1  0
 24 25  1  0
 24 26  1  0
 12  8  1  0
 23 17  1  0
 24 11  1  0
M  END
$$$$
