
     RDKit          3D

 45 49  0  0  0  0  0  0  0  0999 V2000
  -17.1710   20.4462  -32.2168 C   0  0  0  0  0  0  0  0  0  0  0  0
  -18.5984   20.5733  -32.5565 C   0  0  0  0  0  0  0  0  0  0  0  0
  -19.3821   21.5347  -31.9601 C   0  0  0  0  0  0  0  0  0  0  0  0
  -20.7440   21.6630  -32.2788 C   0  0  0  0  0  0  0  0  0  0  0  0
  -21.6879   22.5815  -31.6321 C   0  0  0  0  0  0  0  0  0  0  0  0
  -21.2643   20.7892  -33.2164 C   0  0  0  0  0  0  0  0  0  0  0  0
  -20.4874   19.8011  -33.8303 C   0  0  0  0  0  0  0  0  0  0  0  0
  -19.1531   19.7258  -33.4745 C   0  0  0  0  0  0  0  0  0  0  0  0
  -20.8961   18.7576  -34.7891 C   0  0  1  0  0  0  0  0  0  0  0  0
  -20.6046   17.4103  -34.4048 N   0  0  0  0  0  0  0  0  0  0  0  0
  -20.2792   17.1426  -33.0095 C   0  0  0  0  0  0  0  0  0  0  0  0
  -18.8309   16.9206  -32.8262 C   0  0  0  0  0  0  0  0  0  0  0  0
  -18.0604   17.7358  -32.0356 C   0  0  0  0  0  0  0  0  0  0  0  0
  -16.6975   17.4425  -31.9185 C   0  0  0  0  0  0  0  0  0  0  0  0
  -15.8572   18.3188  -31.0602 C   0  0  0  0  0  0  0  0  0  0  0  0
  -15.4484   19.4119  -31.7800 F   0  0  0  0  0  0  0  0  0  0  0  0
  -16.6163   18.7468  -29.9900 F   0  0  0  0  0  0  0  0  0  0  0  0
  -14.7608   17.5799  -30.6309 F   0  0  0  0  0  0  0  0  0  0  0  0
  -16.1745   16.3580  -32.5909 C   0  0  0  0  0  0  0  0  0  0  0  0
  -16.9384   15.5307  -33.3895 C   0  0  0  0  0  0  0  0  0  0  0  0
  -16.3447   14.3673  -34.1047 C   0  0  0  0  0  0  0  0  0  0  0  0
  -16.9848   13.2312  -33.6584 F   0  0  0  0  0  0  0  0  0  0  0  0
  -15.0013   14.3408  -33.8855 F   0  0  0  0  0  0  0  0  0  0  0  0
  -16.6691   14.5176  -35.4452 F   0  0  0  0  0  0  0  0  0  0  0  0
  -18.2753   15.8427  -33.4867 C   0  0  0  0  0  0  0  0  0  0  0  0
  -20.5906   16.3273  -35.2900 C   0  0  0  0  0  0  0  0  0  0  0  0
  -20.4411   15.0247  -34.9571 N   0  0  0  0  0  0  0  0  0  0  0  0
  -20.4880   14.3192  -36.0323 N   0  0  0  0  0  0  0  0  0  0  0  0
  -20.6631   15.0913  -37.0763 N   0  0  0  0  0  0  0  0  0  0  0  0
  -20.7564   14.5813  -38.4287 C   0  0  0  0  0  0  0  0  0  0  0  0
  -20.7252   16.3080  -36.6218 N   0  0  0  0  0  0  0  0  0  0  0  0
  -22.3311   18.9326  -35.2305 C   0  0  0  0  0  0  0  0  0  0  0  0
  -23.3498   18.9127  -34.1546 C   0  0  0  0  0  0  0  0  0  0  0  0
  -23.7402   20.2020  -33.5403 C   0  0  0  0  0  0  0  0  0  0  0  0
  -22.6171   21.1646  -33.4531 N   0  0  0  0  0  0  0  0  0  0  0  0
  -22.8215   22.5726  -33.5736 C   0  0  0  0  0  0  0  0  0  0  0  0
  -23.6475   23.1195  -34.7001 C   0  0  1  0  0  0  0  0  0  0  0  0
  -25.0469   23.5585  -34.2808 C   0  0  0  0  0  0  0  0  0  0  0  0
  -25.0725   24.7569  -33.4039 C   0  0  0  0  0  0  0  0  0  0  0  0
  -24.0358   25.7991  -33.7582 C   0  0  2  0  0  0  0  0  0  0  0  0
  -24.5171   27.1458  -33.4548 C   0  0  0  0  0  0  0  0  0  0  0  0
  -24.7888   27.4776  -32.2814 O   0  0  0  0  0  0  0  0  0  0  0  0
  -24.6754   28.0601  -34.4653 O   0  0  0  0  0  0  0  0  0  0  0  0
  -23.7040   25.5718  -35.2163 C   0  0  0  0  0  0  0  0  0  0  0  0
  -22.8484   24.3238  -35.2187 C   0  0  0  0  0  0  0  0  0  0  0  0
  1  2  1  0
  2  3  2  0
  3  4  1  0
  4  5  1  0
  4  6  2  0
  6  7  1  0
  7  8  2  0
  7  9  1  0
  9 10  1  1
 10 11  1  0
 11 12  1  0
 12 13  2  0
 13 14  1  0
 14 15  1  0
 15 16  1  0
 15 17  1  0
 15 18  1  0
 14 19  2  0
 19 20  1  0
 20 21  1  0
 21 22  1  0
 21 23  1  0
 21 24  1  0
 20 25  2  0
 10 26  1  0
 26 27  1  0
 27 28  2  0
 28 29  1  0
 29 30  1  0
 29 31  1  0
  9 32  1  0
 32 33  1  0
 33 34  1  0
 34 35  1  0
 35 36  1  0
 37 36  1  1
 37 38  1  0
 38 39  1  0
 39 40  1  0
 40 41  1  6
 41 42  2  0
 41 43  1  0
 40 44  1  0
 44 45  1  0
  8  2  1  0
 25 12  1  0
 31 26  2  0
 45 37  1  0
 35  6  1  0
M  END
$$$$
