
     RDKit          3D

 24 26  0  0  0  0  0  0  0  0999 V2000
   -7.9878    8.0354  -44.7728 C   0  0  0  0  0  0  0  0  0  0  0  0
   -6.8765    8.6824  -45.3110 O   0  0  0  0  0  0  0  0  0  0  0  0
   -5.5611    8.3405  -44.9881 C   0  0  0  0  0  0  0  0  0  0  0  0
   -5.2765    7.4091  -44.0155 C   0  0  0  0  0  0  0  0  0  0  0  0
   -3.9840    7.0760  -43.7011 C   0  0  0  0  0  0  0  0  0  0  0  0
   -2.8662    7.6521  -44.3392 C   0  0  0  0  0  0  0  0  0  0  0  0
   -1.5315    7.2408  -43.9437 C   0  0  0  0  0  0  0  0  0  0  0  0
   -0.6707    6.9222  -44.8397 O   0  0  0  0  0  0  0  0  0  0  0  0
   -1.1069    7.1663  -42.6022 N   0  0  0  0  0  0  0  0  0  0  0  0
   -1.8149    6.8926  -41.5229 N   0  0  0  0  0  0  0  0  0  0  0  0
   -1.0879    6.9070  -40.4090 C   0  0  0  0  0  0  0  0  0  0  0  0
   -1.5037    6.6582  -39.0407 C   0  0  0  0  0  0  0  0  0  0  0  0
   -2.7997    6.7938  -38.6091 C   0  0  0  0  0  0  0  0  0  0  0  0
   -3.1750    6.5533  -37.3070 C   0  0  0  0  0  0  0  0  0  0  0  0
   -2.2129    6.1594  -36.3940 C   0  0  0  0  0  0  0  0  0  0  0  0
   -0.9081    6.0216  -36.8233 C   0  0  0  0  0  0  0  0  0  0  0  0
   -0.5525    6.2662  -38.1270 C   0  0  0  0  0  0  0  0  0  0  0  0
    0.1533    7.2095  -40.8248 N   0  0  0  0  0  0  0  0  0  0  0  0
    0.1525    7.3690  -42.1555 C   0  0  0  0  0  0  0  0  0  0  0  0
    1.2441    7.6933  -43.0064 N   0  0  0  0  0  0  0  0  0  0  0  0
   -3.1660    8.5765  -45.3041 C   0  0  0  0  0  0  0  0  0  0  0  0
   -4.4894    8.9177  -45.6260 C   0  0  0  0  0  0  0  0  0  0  0  0
   -4.7615    9.8533  -46.6033 O   0  0  0  0  0  0  0  0  0  0  0  0
   -4.0356    9.8159  -47.8025 C   0  0  0  0  0  0  0  0  0  0  0  0
  1  2  1  0
  2  3  1  0
  3  4  2  0
  4  5  1  0
  5  6  2  0
  6  7  1  0
  7  8  2  0
  7  9  1  0
  9 10  1  0
 10 11  2  0
 11 12  1  0
 12 13  2  0
 13 14  1  0
 14 15  2  0
 15 16  1  0
 16 17  2  0
 11 18  1  0
 18 19  2  0
 19 20  1  0
  6 21  1  0
 21 22  2  0
 22 23  1  0
 23 24  1  0
 22  3  1  0
 19  9  1  0
 17 12  1  0
M  END
$$$$
