
     RDKit          3D

 30 34  0  0  0  0  0  0  0  0999 V2000
  -21.2442   32.9915  -23.8263 N   0  0  0  0  0  0  0  0  0  0  0  0
  -20.4324   33.3629  -22.7296 C   0  0  0  0  0  0  0  0  0  0  0  0
  -20.1160   32.5293  -21.8626 O   0  0  0  0  0  0  0  0  0  0  0  0
  -19.9639   34.7277  -22.6133 C   0  0  0  0  0  0  0  0  0  0  0  0
  -20.3680   35.6807  -23.5016 C   0  0  0  0  0  0  0  0  0  0  0  0
  -19.9307   36.9718  -23.3990 C   0  0  0  0  0  0  0  0  0  0  0  0
  -19.0721   37.3478  -22.3991 C   0  0  0  0  0  0  0  0  0  0  0  0
  -18.5765   38.7095  -22.2466 C   0  0  0  0  0  0  0  0  0  0  0  0
  -18.7599   39.6679  -23.1687 N   0  0  0  0  0  0  0  0  0  0  0  0
  -18.1955   40.8262  -22.7636 C   0  0  0  0  0  0  0  0  0  0  0  0
  -18.2257   42.0492  -23.5421 C   0  0  0  0  0  0  0  0  0  0  0  0
  -18.6383   43.2396  -23.0102 C   0  0  0  0  0  0  0  0  0  0  0  0
  -18.6423   44.3681  -23.7988 C   0  0  0  0  0  0  0  0  0  0  0  0
  -18.2475   44.3805  -25.1260 C   0  0  0  0  0  0  0  0  0  0  0  0
  -17.8343   43.1736  -25.6479 C   0  0  0  0  0  0  0  0  0  0  0  0
  -17.8248   42.0336  -24.8700 C   0  0  0  0  0  0  0  0  0  0  0  0
  -17.4320   43.1629  -26.9833 O   0  0  0  0  0  0  0  0  0  0  0  0
  -17.0842   44.3327  -27.6818 C   0  0  0  0  0  0  0  0  0  0  0  0
  -17.9735   45.5011  -27.3024 C   0  0  0  0  0  0  0  0  0  0  0  0
  -18.2534   45.5183  -25.9146 O   0  0  0  0  0  0  0  0  0  0  0  0
  -17.6467   40.5583  -21.5440 C   0  0  0  0  0  0  0  0  0  0  0  0
  -16.9331   41.4775  -20.7094 C   0  0  0  0  0  0  0  0  0  0  0  0
  -16.1490   42.4574  -21.2775 C   0  0  0  0  0  0  0  0  0  0  0  0
  -15.4357   43.3772  -20.5381 C   0  0  0  0  0  0  0  0  0  0  0  0
  -15.5078   43.3169  -19.1650 C   0  0  0  0  0  0  0  0  0  0  0  0
  -16.3002   42.3265  -18.5916 C   0  0  0  0  0  0  0  0  0  0  0  0
  -16.9804   41.4482  -19.3504 N   0  0  0  0  0  0  0  0  0  0  0  0
  -17.8922   39.2690  -21.2550 N   0  0  0  0  0  0  0  0  0  0  0  0
  -18.6496   36.4068  -21.4910 C   0  0  0  0  0  0  0  0  0  0  0  0
  -19.0912   35.1147  -21.5989 C   0  0  0  0  0  0  0  0  0  0  0  0
  1  2  1  0
  2  3  2  0
  2  4  1  0
  4  5  2  0
  5  6  1  0
  6  7  2  0
  7  8  1  0
  8  9  2  0
  9 10  1  0
 10 11  1  0
 11 12  2  0
 12 13  1  0
 13 14  2  0
 14 15  1  0
 15 16  2  0
 15 17  1  0
 17 18  1  0
 18 19  1  0
 19 20  1  0
 10 21  2  0
 21 22  1  0
 22 23  2  0
 23 24  1  0
 24 25  2  0
 25 26  1  0
 26 27  2  0
 21 28  1  0
  7 29  1  0
 29 30  2  0
 30  4  1  0
 28  8  1  0
 16 11  1  0
 27 22  1  0
 20 14  1  0
M  END
$$$$
