
     RDKit          3D

 14 14  0  0  0  0  0  0  0  0999 V2000
  -18.3531   40.8750  -23.2282 N   0  0  0  0  0  0  0  0  0  0  0  0
  -18.4325   40.9981  -21.9521 C   0  0  0  0  0  0  0  0  0  0  0  0
  -18.6041   42.2807  -21.3651 N   0  0  0  0  0  0  0  0  0  0  0  0
  -18.3415   39.8103  -21.1783 N   0  0  0  0  0  0  0  0  0  0  0  0
  -18.3417   38.4937  -21.7477 C   0  0  0  0  0  0  0  0  0  0  0  0
  -18.1593   38.3836  -22.9956 N   0  0  0  0  0  0  0  0  0  0  0  0
  -18.5339   37.3399  -20.9557 N   0  0  0  0  0  0  0  0  0  0  0  0
  -18.5916   36.0402  -21.4813 C   0  0  0  0  0  0  0  0  0  0  0  0
  -17.4319   35.4783  -22.0407 C   0  0  0  0  0  0  0  0  0  0  0  0
  -17.4567   34.2063  -22.5467 C   0  0  0  0  0  0  0  0  0  0  0  0
  -18.6174   33.4457  -22.5204 C   0  0  0  0  0  0  0  0  0  0  0  0
  -19.7752   33.9675  -21.9773 C   0  0  0  0  0  0  0  0  0  0  0  0
  -21.2693   33.0695  -21.9108 Cl  0  0  0  0  0  0  0  0  0  0  0  0
  -19.7233   35.2556  -21.4724 C   0  0  0  0  0  0  0  0  0  0  0  0
  1  2  2  0
  2  3  1  0
  2  4  1  0
  4  5  1  0
  5  6  2  0
  5  7  1  0
  7  8  1  0
  8  9  2  0
  9 10  1  0
 10 11  2  0
 11 12  1  0
 12 13  1  0
 12 14  2  0
 14  8  1  0
M  END
$$$$
