
     RDKit          3D

 18 19  0  0  0  0  0  0  0  0999 V2000
  -20.2468   39.4936  -26.1948 C   0  0  0  0  0  0  0  0  0  0  0  0
  -19.5387   38.6579  -25.2067 C   0  0  0  0  0  0  0  0  0  0  0  0
  -19.0431   37.4254  -25.3792 N   0  0  0  0  0  0  0  0  0  0  0  0
  -18.4800   36.9921  -24.2850 O   0  0  0  0  0  0  0  0  0  0  0  0
  -18.5876   37.9211  -23.3648 C   0  0  0  0  0  0  0  0  0  0  0  0
  -18.0914   37.8142  -22.0337 N   0  0  0  0  0  0  0  0  0  0  0  0
  -17.3093   36.4018  -21.4854 S   0  0  0  0  0  6  0  0  0  0  0  0
  -16.0175   36.1589  -22.2089 O   0  0  0  0  0  0  0  0  0  0  0  0
  -17.0196   36.5304  -20.0182 O   0  0  0  0  0  0  0  0  0  0  0  0
  -18.3587   35.0299  -21.7872 C   0  0  0  0  0  0  0  0  0  0  0  0
  -17.8654   33.8473  -22.3054 C   0  0  0  0  0  0  0  0  0  0  0  0
  -18.6779   32.7572  -22.5491 C   0  0  0  0  0  0  0  0  0  0  0  0
  -20.0304   32.8031  -22.2829 C   0  0  0  0  0  0  0  0  0  0  0  0
  -20.8902   31.6843  -22.5283 N   0  0  0  0  0  0  0  0  0  0  0  0
  -20.5184   33.9852  -21.7658 C   0  0  0  0  0  0  0  0  0  0  0  0
  -19.7118   35.0771  -21.5203 C   0  0  0  0  0  0  0  0  0  0  0  0
  -19.2450   38.9880  -23.8941 C   0  0  0  0  0  0  0  0  0  0  0  0
  -19.6004   40.2729  -23.2353 C   0  0  0  0  0  0  0  0  0  0  0  0
  1  2  1  0
  2  3  2  0
  3  4  1  0
  4  5  1  0
  5  6  1  0
  6  7  1  0
  7  8  2  0
  7  9  2  0
  7 10  1  0
 10 11  2  0
 11 12  1  0
 12 13  2  0
 13 14  1  0
 13 15  1  0
 15 16  2  0
  5 17  2  0
 17 18  1  0
 17  2  1  0
 16 10  1  0
M  END
$$$$
