
     RDKit          3D

 27 29  0  0  0  0  0  0  0  0999 V2000
  -19.2140   38.2042  -23.1745 O   0  0  0  0  0  0  0  0  0  0  0  0
  -18.5236   37.5545  -22.3491 C   0  0  0  0  0  0  0  0  0  0  0  0
  -17.5398   38.2420  -21.6536 O   0  0  0  0  0  0  0  0  0  0  0  0
  -17.4432   39.6075  -21.6567 C   0  0  0  0  0  0  0  0  0  0  0  0
  -16.5336   40.2391  -22.4605 C   0  0  0  0  0  0  0  0  0  0  0  0
  -16.4167   41.5403  -22.4864 O   0  0  0  0  0  0  0  0  0  0  0  0
  -17.1485   42.3363  -21.7571 C   0  0  0  0  0  0  0  0  0  0  0  0
  -17.0027   43.8202  -21.7984 C   0  0  0  0  0  0  0  0  0  0  0  0
  -16.4373   44.3861  -20.1556 S   0  0  0  0  0  0  0  0  0  0  0  0
  -14.6540   44.1840  -20.0649 C   0  0  0  0  0  0  0  0  0  0  0  0
  -13.9229   44.7162  -19.0714 N   0  0  0  0  0  0  0  0  0  0  0  0
  -12.5726   44.5220  -19.0651 C   0  0  0  0  0  0  0  0  0  0  0  0
  -11.9718   43.7923  -20.0618 C   0  0  0  0  0  0  0  0  0  0  0  0
  -12.7429   43.2524  -21.0764 C   0  0  0  0  0  0  0  0  0  0  0  0
  -14.0667   43.4706  -21.0391 N   0  0  0  0  0  0  0  0  0  0  0  0
  -18.0966   41.8016  -20.9115 C   0  0  0  0  0  0  0  0  0  0  0  0
  -18.2368   40.4058  -20.8699 C   0  0  0  0  0  0  0  0  0  0  0  0
  -19.0928   39.9098  -20.1073 O   0  0  0  0  0  0  0  0  0  0  0  0
  -18.7657   36.1252  -22.1447 C   0  0  0  0  0  0  0  0  0  0  0  0
  -20.0238   35.5729  -22.2377 C   0  0  0  0  0  0  0  0  0  0  0  0
  -20.2434   34.2227  -22.0444 C   0  0  0  0  0  0  0  0  0  0  0  0
  -19.2035   33.3667  -21.7481 C   0  0  0  0  0  0  0  0  0  0  0  0
  -19.4525   31.9734  -21.5528 N   0  0  0  0  0  4  0  0  0  0  0  0
  -20.6041   31.5102  -21.4604 O   0  0  0  0  0  0  0  0  0  0  0  0
  -18.4113   31.1110  -21.4626 O   0  0  0  0  0  1  0  0  0  0  0  0
  -17.9448   33.9221  -21.6554 C   0  0  0  0  0  0  0  0  0  0  0  0
  -17.7229   35.2748  -21.8489 C   0  0  0  0  0  0  0  0  0  0  0  0
  1  2  2  0
  2  3  1  0
  3  4  1  0
  4  5  2  0
  5  6  1  0
  6  7  1  0
  7  8  1  0
  8  9  1  0
  9 10  1  0
 10 11  2  0
 11 12  1  0
 12 13  2  0
 13 14  1  0
 14 15  2  0
  7 16  2  0
 16 17  1  0
 17 18  2  0
  2 19  1  0
 19 20  2  0
 20 21  1  0
 21 22  2  0
 22 23  1  0
 23 24  2  0
 23 25  1  0
 22 26  1  0
 26 27  2  0
 17  4  1  0
 27 19  1  0
 15 10  1  0
M  CHG  2  23   1  25  -1
M  END
$$$$
