
     RDKit          3D

 11 12  0  0  0  0  0  0  0  0999 V2000
  -20.9482   34.3055  -22.3434 O   0  0  0  0  0  0  0  0  0  0  0  0
  -19.6988   34.2642  -22.2204 C   0  0  0  0  0  0  0  0  0  0  0  0
  -19.0611   33.0402  -22.1089 O   0  0  0  0  0  0  0  0  0  0  0  0
  -18.9261   35.5246  -22.1965 C   0  0  0  0  0  0  0  0  0  0  0  0
  -17.5589   35.6688  -22.1474 C   0  0  0  0  0  0  0  0  0  0  0  0
  -17.2187   37.0053  -22.1394 C   0  0  0  0  0  0  0  0  0  0  0  0
  -16.2589   37.8972  -22.1074 O   0  0  0  0  0  0  0  0  0  0  0  0
  -16.7253   39.1212  -22.1283 C   0  0  0  0  0  0  0  0  0  0  0  0
  -18.0930   39.0244  -22.1776 C   0  0  0  0  0  0  0  0  0  0  0  0
  -18.4173   37.6870  -22.1850 C   0  0  0  0  0  0  0  0  0  0  0  0
  -19.4262   36.7693  -22.2187 N   0  0  0  0  0  0  0  0  0  0  0  0
  1  2  2  0
  2  3  1  0
  2  4  1  0
  4  5  2  0
  5  6  1  0
  6  7  1  0
  7  8  1  0
  8  9  2  0
  9 10  1  0
 10 11  1  0
 11  4  1  0
 10  6  2  0
M  END
$$$$
