
     RDKit          3D

 46 48  0  0  0  0  0  0  0  0999 V2000
  -15.1789   17.7151  -33.3918 C   0  0  0  0  0  0  0  0  0  0  0  0
  -15.1154   18.9764  -34.2333 C   0  0  0  0  0  0  0  0  0  0  0  0
  -16.4202   19.1239  -35.0073 C   0  0  0  0  0  0  0  0  0  0  0  0
  -17.5193   19.2113  -34.1484 O   0  0  0  0  0  0  0  0  0  0  0  0
  -18.7905   19.3536  -34.6582 C   0  0  0  0  0  0  0  0  0  0  0  0
  -19.0097   19.4092  -35.9973 C   0  0  0  0  0  0  0  0  0  0  0  0
  -20.3271   19.5579  -36.4846 C   0  0  0  0  0  0  0  0  0  0  0  0
  -20.4236   19.5955  -37.8508 O   0  0  0  0  0  0  0  0  0  0  0  0
  -21.4987   19.7536  -38.6811 C   0  0  0  0  0  0  0  0  0  0  0  0
  -22.1291   21.1282  -38.5334 C   0  0  0  0  0  0  0  0  0  0  0  0
  -21.1593   22.2158  -38.8921 C   0  0  0  0  0  0  0  0  0  0  0  0
  -21.6532   23.5990  -38.7638 C   0  0  0  0  0  0  0  0  0  0  0  0
  -22.7616   24.0167  -39.5352 N   0  0  0  0  0  0  0  0  0  0  0  0
  -22.9554   25.4530  -39.2380 C   0  0  0  0  0  0  0  0  0  0  0  0
  -24.0185   23.3947  -39.3214 C   0  0  0  0  0  0  0  0  0  0  0  0
  -21.3387   19.6398  -35.5811 C   0  0  0  0  0  0  0  0  0  0  0  0
  -21.1619   19.5874  -34.2002 C   0  0  0  0  0  0  0  0  0  0  0  0
  -22.2201   19.6734  -33.3459 O   0  0  0  0  0  0  0  0  0  0  0  0
  -22.9658   18.5478  -32.9593 C   0  0  0  0  0  0  0  0  0  0  0  0
  -22.6871   17.2738  -33.4480 C   0  0  0  0  0  0  0  0  0  0  0  0
  -23.4245   16.1867  -33.0528 C   0  0  0  0  0  0  0  0  0  0  0  0
  -24.4577   16.3606  -32.1554 C   0  0  0  0  0  0  0  0  0  0  0  0
  -24.7460   17.6153  -31.6620 C   0  0  0  0  0  0  0  0  0  0  0  0
  -24.0032   18.7375  -32.0579 C   0  0  0  0  0  0  0  0  0  0  0  0
  -24.2951   20.0562  -31.6262 N   0  0  0  0  0  0  0  0  0  0  0  0
  -24.3765   20.4416  -29.9802 S   0  0  0  0  0  6  0  0  0  0  0  0
  -24.4730   21.9512  -29.8572 O   0  0  0  0  0  0  0  0  0  0  0  0
  -23.0000   20.1056  -29.3868 O   0  0  0  0  0  0  0  0  0  0  0  0
  -25.5572   19.6366  -29.0439 C   0  0  0  0  0  0  0  0  0  0  0  0
  -25.1886   18.5951  -28.1998 C   0  0  0  0  0  0  0  0  0  0  0  0
  -26.1209   17.9557  -27.4013 C   0  0  0  0  0  0  0  0  0  0  0  0
  -27.4282   18.3294  -27.4214 C   0  0  0  0  0  0  0  0  0  0  0  0
  -28.4257   17.7461  -26.6522 O   0  0  0  0  0  0  0  0  0  0  0  0
  -28.2555   16.7052  -25.7463 C   0  0  0  0  0  0  0  0  0  0  0  0
  -27.8290   19.3755  -28.2673 C   0  0  0  0  0  0  0  0  0  0  0  0
  -29.1172   19.7514  -28.3025 O   0  0  0  0  0  0  0  0  0  0  0  0
  -29.8420   20.6655  -28.9649 C   0  0  0  0  0  0  0  0  0  0  0  0
  -26.8808   20.0280  -29.0805 C   0  0  0  0  0  0  0  0  0  0  0  0
  -25.0180   15.1505  -31.9474 N   0  0  0  0  0  0  0  0  0  0  0  0
  -26.1353   14.8057  -31.0918 C   0  0  0  0  0  0  0  0  0  0  0  0
  -24.3415   14.2539  -32.7035 C   0  0  0  0  0  0  0  0  0  0  0  0
  -24.5681   13.0066  -32.7836 O   0  0  0  0  0  0  0  0  0  0  0  0
  -23.3627   14.8940  -33.3821 N   0  0  0  0  0  0  0  0  0  0  0  0
  -22.4331   14.2695  -34.2981 C   0  0  0  0  0  0  0  0  0  0  0  0
  -19.8722   19.4438  -33.7690 C   0  0  0  0  0  0  0  0  0  0  0  0
  -23.2107   18.9361  -32.9438 Cl  0  0  0  0  0  0  0  0  0  0  0  0
  1  2  1  0
  2  3  1  0
  3  4  1  0
  4  5  1  0
  5  6  2  0
  6  7  1  0
  7  8  1  0
  8  9  1  0
  9 10  1  0
 10 11  1  0
 11 12  1  0
 12 13  1  0
 13 14  1  0
 13 15  1  0
  7 16  2  0
 16 17  1  0
 17 18  1  0
 18 19  1  0
 19 20  2  0
 20 21  1  0
 21 22  2  0
 22 23  1  0
 23 24  2  0
 24 25  1  0
 25 26  1  0
 26 27  2  0
 26 28  2  0
 26 29  1  0
 29 30  2  0
 30 31  1  0
 31 32  2  0
 32 33  1  0
 33 34  1  0
 32 35  1  0
 35 36  1  0
 36 37  1  0
 35 38  2  0
 22 39  1  0
 39 40  1  0
 39 41  1  0
 41 42  2  0
 41 43  1  0
 43 44  1  0
 17 45  2  0
 45  5  1  0
 24 19  1  0
 38 29  1  0
 43 21  1  0
M  END
$$$$
