
     RDKit          3D

 25 27  0  0  0  0  0  0  0  0999 V2000
  -14.3965   17.1586  -35.1195 Cl  0  0  0  0  0  0  0  0  0  0  0  0
  -16.9949   20.5421  -29.6065 F   0  0  0  0  0  0  0  0  0  0  0  0
  -16.6033   19.4422  -30.3106 C   0  0  0  0  0  0  0  0  0  0  0  0
  -17.4776   18.9134  -31.2252 C   0  0  0  0  0  0  0  0  0  0  0  0
  -17.1256   17.8016  -31.9607 C   0  0  0  0  0  0  0  0  0  0  0  0
  -15.8918   17.2210  -31.7754 C   0  0  0  0  0  0  0  0  0  0  0  0
  -15.5196   16.0215  -32.5730 C   0  0  2  0  0  0  0  0  0  0  0  0
  -15.4050   14.8738  -31.6066 C   0  0  0  0  0  0  0  0  0  0  0  0
  -14.6218   13.7086  -32.1608 C   0  0  0  0  0  0  0  0  0  0  0  0
  -13.2968   14.2174  -32.4689 N   0  0  0  0  0  0  0  0  0  0  0  0
  -13.4716   15.0300  -33.6574 C   0  0  0  0  0  0  0  0  0  0  0  0
  -14.3261   16.2387  -33.4296 C   0  0  1  0  0  0  0  0  0  0  0  0
  -14.7322   16.7772  -34.7873 C   0  0  0  0  0  0  0  0  0  0  0  0
  -13.5929   16.9808  -35.5951 O   0  0  0  0  0  0  0  0  0  0  0  0
  -13.6760   17.4615  -36.8709 C   0  0  0  0  0  0  0  0  0  0  0  0
  -14.8784   17.7729  -37.4355 C   0  0  0  0  0  0  0  0  0  0  0  0
  -14.8972   18.2559  -38.7321 C   0  0  0  0  0  0  0  0  0  0  0  0
  -13.7401   18.4300  -39.4644 C   0  0  0  0  0  0  0  0  0  0  0  0
  -12.5237   18.1072  -38.8722 C   0  0  0  0  0  0  0  0  0  0  0  0
  -12.5009   17.6264  -37.5824 C   0  0  0  0  0  0  0  0  0  0  0  0
  -11.5045   18.3584  -39.7808 O   0  0  0  0  0  0  0  0  0  0  0  0
  -12.0537   18.9651  -40.9318 C   0  0  0  0  0  0  0  0  0  0  0  0
  -13.4421   18.8799  -40.7438 O   0  0  0  0  0  0  0  0  0  0  0  0
  -15.0115   17.7605  -30.8485 C   0  0  0  0  0  0  0  0  0  0  0  0
  -15.3742   18.8685  -30.1220 C   0  0  0  0  0  0  0  0  0  0  0  0
  2  3  1  0
  3  4  2  0
  4  5  1  0
  5  6  2  0
  7  6  1  1
  7  8  1  0
  8  9  1  0
  9 10  1  0
 10 11  1  0
 11 12  1  0
 12 13  1  6
 13 14  1  0
 14 15  1  0
 15 16  2  0
 16 17  1  0
 17 18  2  0
 18 19  1  0
 19 20  2  0
 19 21  1  0
 21 22  1  0
 22 23  1  0
  6 24  1  0
 24 25  2  0
 25  3  1  0
 12  7  1  0
 20 15  1  0
 23 18  1  0
M  END
$$$$
