
     RDKit          3D

 24 26  0  0  0  0  0  0  0  0999 V2000
  -23.4910   17.9311  -34.3068 C   0  0  0  0  0  0  0  0  0  0  0  0
  -22.6388   17.4395  -33.1628 C   0  0  0  0  0  0  0  0  0  0  0  0
  -23.0360   16.1693  -32.6611 N   0  0  0  0  0  0  0  0  0  0  0  0
  -24.4150   15.8464  -32.8227 C   0  0  0  0  0  0  0  0  0  0  0  0
  -24.8899   15.0123  -31.6260 C   0  0  0  0  0  0  0  0  0  0  0  0
  -21.9620   14.8983  -33.0558 S   0  0  0  0  0  6  0  0  0  0  0  0
  -22.4431   14.0797  -34.2174 O   0  0  0  0  0  0  0  0  0  0  0  0
  -21.7619   13.9601  -31.9039 O   0  0  0  0  0  0  0  0  0  0  0  0
  -20.4098   15.5904  -33.4644 C   0  0  0  0  0  0  0  0  0  0  0  0
  -20.2903   16.6397  -34.3633 C   0  0  0  0  0  0  0  0  0  0  0  0
  -19.0820   17.1952  -34.6940 C   0  0  0  0  0  0  0  0  0  0  0  0
  -17.9338   16.7092  -34.1252 C   0  0  0  0  0  0  0  0  0  0  0  0
  -18.0060   15.6705  -33.2296 C   0  0  0  0  0  0  0  0  0  0  0  0
  -16.8077   15.2015  -32.6693 N   0  0  0  0  0  0  0  0  0  0  0  0
  -15.1504   15.5648  -33.3005 S   0  0  0  0  0  0  0  0  0  0  0  0
  -14.2738   14.6370  -32.0781 C   0  0  0  0  0  0  0  0  0  0  0  0
  -12.9117   14.4227  -31.8841 C   0  0  0  0  0  0  0  0  0  0  0  0
  -12.5120   13.6401  -30.8271 C   0  0  0  0  0  0  0  0  0  0  0  0
  -13.4888   13.1159  -30.0243 C   0  0  0  0  0  0  0  0  0  0  0  0
  -14.8283   13.3386  -30.2316 C   0  0  0  0  0  0  0  0  0  0  0  0
  -15.2618   14.1438  -31.3175 C   0  0  0  0  0  0  0  0  0  0  0  0
  -16.5418   14.4311  -31.6191 C   0  0  0  0  0  0  0  0  0  0  0  0
  -17.5861   14.0032  -30.9449 O   0  0  0  0  0  0  0  0  0  0  0  0
  -19.2316   15.1359  -32.9192 C   0  0  0  0  0  0  0  0  0  0  0  0
  1  2  1  0
  2  3  1  0
  3  4  1  0
  4  5  1  0
  3  6  1  0
  6  7  2  0
  6  8  2  0
  6  9  1  0
  9 10  2  0
 10 11  1  0
 11 12  2  0
 12 13  1  0
 13 14  1  0
 14 15  1  0
 15 16  1  0
 16 17  2  0
 17 18  1  0
 18 19  2  0
 19 20  1  0
 20 21  2  0
 21 22  1  0
 22 23  2  0
 13 24  2  0
 24  9  1  0
 22 14  1  0
 21 16  1  0
M  END
$$$$
