
     RDKit          3D

 30 33  0  0  0  0  0  0  0  0999 V2000
  -18.8619   31.0494  -21.3183 C   0  0  0  0  0  0  0  0  0  0  0  0
  -19.1976   32.2622  -21.5031 O   0  0  0  0  0  0  0  0  0  0  0  0
  -19.5118   33.5144  -21.7644 C   0  0  0  0  0  0  0  0  0  0  0  0
  -20.8415   33.8710  -21.8120 C   0  0  0  0  0  0  0  0  0  0  0  0
  -21.2423   35.1719  -22.0775 C   0  0  0  0  0  0  0  0  0  0  0  0
  -20.2729   36.1175  -22.2983 C   0  0  0  0  0  0  0  0  0  0  0  0
  -18.9440   35.8523  -22.2686 C   0  0  0  0  0  0  0  0  0  0  0  0
  -17.9202   36.8741  -22.5201 C   0  0  0  0  0  0  0  0  0  0  0  0
  -17.7657   37.8284  -21.4598 N   0  0  0  0  0  0  0  0  0  0  0  0
  -18.1247   39.1846  -21.6486 C   0  0  0  0  0  0  0  0  0  0  0  0
  -17.8728   39.7997  -22.8939 C   0  0  0  0  0  0  0  0  0  0  0  0
  -18.1751   41.1576  -23.0979 C   0  0  0  0  0  0  0  0  0  0  0  0
  -18.7117   41.9131  -22.1307 C   0  0  0  0  0  0  0  0  0  0  0  0
  -19.1268   43.6053  -22.1732 S   0  0  0  0  0  6  0  0  0  0  0  0
  -20.5698   43.8650  -21.9771 O   0  0  0  0  0  0  0  0  0  0  0  0
  -18.8447   44.1118  -23.6137 O   0  0  0  0  0  0  0  0  0  0  0  0
  -18.1467   44.5216  -21.1256 N   0  0  0  0  0  0  0  0  0  0  0  0
  -16.6717   44.3927  -21.1627 C   0  0  0  0  0  0  0  0  0  0  0  0
  -15.6914   44.8465  -21.5544 N   0  0  0  0  0  0  0  0  0  0  0  0
  -14.4304   44.4772  -21.3521 C   0  0  0  0  0  0  0  0  0  0  0  0
  -13.2426   45.0393  -21.8072 C   0  0  0  0  0  0  0  0  0  0  0  0
  -12.0225   44.5074  -21.4566 C   0  0  0  0  0  0  0  0  0  0  0  0
  -11.8765   43.3998  -20.6554 C   0  0  0  0  0  0  0  0  0  0  0  0
  -13.0659   42.8086  -20.1805 C   0  0  0  0  0  0  0  0  0  0  0  0
  -14.2790   43.3690  -20.5437 C   0  0  0  0  0  0  0  0  0  0  0  0
  -15.9867   42.9369  -20.1403 S   0  0  0  0  0  0  0  0  0  0  0  0
  -18.9499   41.2515  -20.8858 C   0  0  0  0  0  0  0  0  0  0  0  0
  -18.6543   39.9396  -20.6982 C   0  0  0  0  0  0  0  0  0  0  0  0
  -18.5745   34.5307  -21.9974 C   0  0  0  0  0  0  0  0  0  0  0  0
  -17.2511   34.2012  -21.9469 O   0  0  0  0  0  0  0  0  0  0  0  0
  1  2  1  0
  2  3  1  0
  3  4  2  0
  4  5  1  0
  5  6  2  0
  6  7  1  0
  7  8  1  0
  8  9  1  0
  9 10  1  0
 10 11  2  0
 11 12  1  0
 12 13  2  0
 13 14  1  0
 14 15  2  0
 14 16  2  0
 14 17  1  0
 17 18  1  0
 18 19  2  0
 19 20  1  0
 20 21  2  0
 21 22  1  0
 22 23  2  0
 23 24  1  0
 24 25  2  0
 25 26  1  0
 13 27  1  0
 27 28  2  0
  7 29  2  0
 29 30  1  0
 29  3  1  0
 28 10  1  0
 26 18  1  0
 25 20  1  0
M  END
$$$$
