
     RDKit          3D

 14 14  0  0  0  0  0  0  0  0999 V2000
  -19.1460   44.3491  -21.2224 C   0  0  0  0  0  0  0  0  0  0  0  0
  -18.0667   43.3146  -20.9785 C   0  0  0  0  0  0  0  0  0  0  0  0
  -18.3104   42.1390  -21.7964 N   0  0  0  0  0  0  0  0  0  0  0  0
  -18.0088   40.8801  -21.2615 C   0  0  0  0  0  0  0  0  0  0  0  0
  -17.5768   40.8064  -20.0597 O   0  0  0  0  0  0  0  0  0  0  0  0
  -18.1465   39.6100  -21.9700 C   0  0  0  0  0  0  0  0  0  0  0  0
  -17.8749   38.4489  -21.4175 C   0  0  0  0  0  0  0  0  0  0  0  0
  -18.1056   37.1473  -22.0509 C   0  0  0  0  0  0  0  0  0  0  0  0
  -19.1293   37.0322  -22.9991 C   0  0  0  0  0  0  0  0  0  0  0  0
  -19.4119   35.8484  -23.6400 C   0  0  0  0  0  0  0  0  0  0  0  0
  -18.6431   34.7398  -23.3210 C   0  0  0  0  0  0  0  0  0  0  0  0
  -17.6306   34.7995  -22.4010 C   0  0  0  0  0  0  0  0  0  0  0  0
  -16.5429   33.3085  -21.9243 Br  0  0  0  0  0  0  0  0  0  0  0  0
  -17.3868   36.0127  -21.7849 C   0  0  0  0  0  0  0  0  0  0  0  0
  1  2  1  0
  2  3  1  0
  3  4  1  0
  4  5  2  0
  4  6  1  0
  6  7  2  0
  7  8  1  0
  8  9  2  0
  9 10  1  0
 10 11  2  0
 11 12  1  0
 12 13  1  0
 12 14  2  0
 14  8  1  0
M  END
$$$$
