
     RDKit          3D

 27 29  0  0  0  0  0  0  0  0999 V2000
  -18.2260   14.5644  -34.3174 C   0  0  0  0  0  0  0  0  0  0  0  0
  -18.6885   15.8235  -33.7355 N   0  0  0  0  0  0  0  0  0  0  0  0
  -18.1376   16.1757  -32.4497 C   0  0  0  0  0  0  0  0  0  0  0  0
  -16.9338   15.3215  -32.1577 C   0  0  0  0  0  0  0  0  0  0  0  0
  -16.7452   14.3299  -32.8448 O   0  0  0  0  0  0  0  0  0  0  0  0
  -16.0367   15.6430  -31.1217 N   0  0  0  0  0  0  0  0  0  0  0  0
  -15.1044   14.8337  -30.4680 C   0  0  0  0  0  0  0  0  0  0  0  0
  -13.8664   14.6404  -31.1033 C   0  0  0  0  0  0  0  0  0  0  0  0
  -12.8665   13.8659  -30.5865 C   0  0  0  0  0  0  0  0  0  0  0  0
  -13.0475   13.2315  -29.3899 C   0  0  0  0  0  0  0  0  0  0  0  0
  -12.0573   12.4572  -28.8645 F   0  0  0  0  0  0  0  0  0  0  0  0
  -14.2440   13.3939  -28.7358 C   0  0  0  0  0  0  0  0  0  0  0  0
  -14.4460   12.7771  -27.5521 F   0  0  0  0  0  0  0  0  0  0  0  0
  -15.2697   14.1912  -29.2711 C   0  0  0  0  0  0  0  0  0  0  0  0
  -16.3960   14.2667  -28.5572 F   0  0  0  0  0  0  0  0  0  0  0  0
  -19.6200   16.6600  -34.3771 C   0  0  0  0  0  0  0  0  0  0  0  0
  -19.6172   16.7141  -35.6346 O   0  0  0  0  0  0  0  0  0  0  0  0
  -20.5924   17.4702  -33.6515 C   0  0  0  0  0  0  0  0  0  0  0  0
  -21.6917   16.8596  -33.0721 C   0  0  0  0  0  0  0  0  0  0  0  0
  -22.6419   17.5720  -32.3755 C   0  0  0  0  0  0  0  0  0  0  0  0
  -22.4608   18.9573  -32.2684 C   0  0  0  0  0  0  0  0  0  0  0  0
  -21.3735   19.5774  -32.8389 C   0  0  0  0  0  0  0  0  0  0  0  0
  -20.4180   18.8338  -33.5437 C   0  0  0  0  0  0  0  0  0  0  0  0
  -21.2454   20.9494  -32.7013 O   0  0  0  0  0  0  0  0  0  0  0  0
  -22.4599   21.6856  -32.5128 C   0  0  0  0  0  0  0  0  0  0  0  0
  -23.1007   21.0723  -31.2778 C   0  0  0  0  0  0  0  0  0  0  0  0
  -23.3786   19.7241  -31.5834 O   0  0  0  0  0  0  0  0  0  0  0  0
  1  2  1  0
  2  3  1  0
  3  4  1  0
  4  5  2  0
  4  6  1  0
  6  7  1  0
  7  8  2  0
  8  9  1  0
  9 10  2  0
 10 11  1  0
 10 12  1  0
 12 13  1  0
 12 14  2  0
 14 15  1  0
  2 16  1  0
 16 17  2  0
 16 18  1  0
 18 19  2  0
 19 20  1  0
 20 21  2  0
 21 22  1  0
 22 23  2  0
 22 24  1  0
 24 25  1  0
 25 26  1  0
 26 27  1  0
 14  7  1  0
 23 18  1  0
 27 21  1  0
M  END
$$$$
