
     RDKit          3D

 39 42  0  0  0  0  0  0  0  0999 V2000
  -13.6724   15.3954  -33.5159 C   0  0  0  0  0  0  0  0  0  0  0  0
  -14.2921   16.5432  -34.3477 C   0  0  0  0  0  0  0  0  0  0  0  0
  -13.3029   17.6319  -34.3337 C   0  0  0  0  0  0  0  0  0  0  0  0
  -15.6345   16.7497  -34.0466 N   0  0  0  0  0  0  0  0  0  0  0  0
  -16.6029   16.9717  -35.0257 C   0  0  0  0  0  0  0  0  0  0  0  0
  -16.4863   18.2077  -35.8687 C   0  0  0  0  0  0  0  0  0  0  0  0
  -17.7499   18.3787  -36.6918 C   0  0  0  0  0  0  0  0  0  0  0  0
  -17.6679   19.4979  -37.5925 N   0  0  0  0  0  0  0  0  0  0  0  0
  -18.6334   19.7104  -38.6461 C   0  0  0  0  0  0  0  0  0  0  0  0
  -19.0572   18.6907  -39.1921 O   0  0  0  0  0  0  0  0  0  0  0  0
  -19.0490   20.9940  -39.0153 N   0  0  0  0  0  0  0  0  0  0  0  0
  -19.8608   21.2705  -40.1303 C   0  0  0  0  0  0  0  0  0  0  0  0
  -19.7748   22.3354  -40.9758 C   0  0  0  0  0  0  0  0  0  0  0  0
  -20.6454   22.5165  -42.0497 C   0  0  0  0  0  0  0  0  0  0  0  0
  -21.6464   21.6140  -42.3104 C   0  0  0  0  0  0  0  0  0  0  0  0
  -22.5700   21.8090  -43.4435 C   0  0  0  0  0  0  0  0  0  0  0  0
  -22.4119   23.2352  -43.9689 C   0  0  0  0  0  0  0  0  0  0  0  0
  -22.3084   20.8620  -44.5705 C   0  0  0  0  0  0  0  0  0  0  0  0
  -23.9873   21.7023  -42.9121 C   0  0  0  0  0  0  0  0  0  0  0  0
  -21.7523   20.5298  -41.4707 C   0  0  0  0  0  0  0  0  0  0  0  0
  -20.8889   20.3622  -40.4145 C   0  0  0  0  0  0  0  0  0  0  0  0
  -15.9154   17.3414  -32.7873 C   0  0  0  0  0  0  0  0  0  0  0  0
  -16.0032   18.8454  -32.7519 C   0  0  1  0  0  0  0  0  0  0  0  0
  -17.2699   19.3254  -32.8890 O   0  0  0  0  0  0  0  0  0  0  0  0
  -17.6625   20.0589  -31.8091 C   0  0  1  0  0  0  0  0  0  0  0  0
  -19.0890   19.9307  -31.5751 N   0  0  0  0  0  0  0  0  0  0  0  0
  -19.9204   18.9639  -32.0099 C   0  0  0  0  0  0  0  0  0  0  0  0
  -21.1886   19.2237  -31.5579 C   0  0  0  0  0  0  0  0  0  0  0  0
  -21.1262   20.3927  -30.8200 C   0  0  0  0  0  0  0  0  0  0  0  0
  -22.0488   21.1417  -30.1319 C   0  0  0  0  0  0  0  0  0  0  0  0
  -23.3990   20.7254  -30.0962 N   0  0  0  0  0  0  0  0  0  0  0  0
  -21.6837   22.2536  -29.4991 N   0  0  0  0  0  0  0  0  0  0  0  0
  -20.4085   22.6744  -29.5151 C   0  0  0  0  0  0  0  0  0  0  0  0
  -19.5146   21.9351  -30.1908 N   0  0  0  0  0  0  0  0  0  0  0  0
  -19.8097   20.8009  -30.8534 C   0  0  0  0  0  0  0  0  0  0  0  0
  -16.8616   19.4810  -30.6650 C   0  0  2  0  0  0  0  0  0  0  0  0
  -16.7366   20.3898  -29.6146 O   0  0  0  0  0  0  0  0  0  0  0  0
  -15.5312   19.2451  -31.3482 C   0  0  2  0  0  0  0  0  0  0  0  0
  -14.8229   20.4421  -31.3710 O   0  0  0  0  0  0  0  0  0  0  0  0
  1  2  1  0
  2  3  1  0
  2  4  1  0
  4  5  1  0
  5  6  1  0
  6  7  1  0
  7  8  1  0
  8  9  1  0
  9 10  2  0
  9 11  1  0
 11 12  1  0
 12 13  2  0
 13 14  1  0
 14 15  2  0
 15 16  1  0
 16 17  1  0
 16 18  1  0
 16 19  1  0
 15 20  1  0
 20 21  2  0
  4 22  1  0
 23 22  1  1
 23 24  1  0
 24 25  1  0
 25 26  1  1
 26 27  1  0
 27 28  2  0
 28 29  1  0
 29 30  2  0
 30 31  1  0
 30 32  1  0
 32 33  2  0
 33 34  1  0
 34 35  2  0
 25 36  1  0
 36 37  1  1
 36 38  1  0
 38 39  1  6
 21 12  1  0
 38 23  1  0
 35 26  1  0
 35 29  1  0
M  END
$$$$
