
     RDKit          3D

 26 27  0  0  0  0  0  0  0  0999 V2000
  -26.8122    9.7947  -28.6715 C   0  0  0  0  0  0  0  0  0  0  0  0
  -27.0855    8.4516  -29.1756 C   0  0  0  0  0  0  0  0  0  0  0  0
  -25.7783    7.7899  -29.5748 C   0  0  0  0  0  0  0  0  0  0  0  0
  -28.0133    8.2475  -30.2015 N   0  0  0  0  0  0  0  0  0  0  0  0
  -28.2395    6.8657  -30.4766 C   0  0  0  0  0  0  0  0  0  0  0  0
  -29.2832    6.5176  -31.4566 C   0  0  0  0  0  0  0  0  0  0  0  0
  -30.6464    6.9781  -31.1081 C   0  0  0  0  0  0  0  0  0  0  0  0
  -30.9254    7.5976  -30.0579 O   0  0  0  0  0  0  0  0  0  0  0  0
  -31.7193    6.6935  -32.0390 C   0  0  0  0  0  0  0  0  0  0  0  0
  -31.5403    6.0340  -33.2335 C   0  0  0  0  0  0  0  0  0  0  0  0
  -32.6156    5.7971  -34.0690 C   0  0  0  0  0  0  0  0  0  0  0  0
  -33.9031    6.2040  -33.7517 C   0  0  0  0  0  0  0  0  0  0  0  0
  -34.9554    5.9469  -34.6183 C   0  0  0  0  0  0  0  0  0  0  0  0
  -36.2204    6.3668  -34.2685 C   0  0  0  0  0  0  0  0  0  0  0  0
  -36.4253    7.0373  -33.0616 C   0  0  0  0  0  0  0  0  0  0  0  0
  -35.3540    7.2740  -32.2271 C   0  0  0  0  0  0  0  0  0  0  0  0
  -34.0766    6.8632  -32.5555 C   0  0  0  0  0  0  0  0  0  0  0  0
  -32.9972    7.0958  -31.7269 C   0  0  0  0  0  0  0  0  0  0  0  0
  -28.3177    9.1663  -31.1817 C   0  0  0  0  0  0  0  0  0  0  0  0
  -27.1966    9.6603  -32.0222 C   0  0  0  0  0  0  0  0  0  0  0  0
  -26.5522   10.8515  -31.7596 C   0  0  0  0  0  0  0  0  0  0  0  0
  -25.4975   11.2935  -32.5437 C   0  0  0  0  0  0  0  0  0  0  0  0
  -25.0383   10.5730  -33.6214 C   0  0  0  0  0  0  0  0  0  0  0  0
  -25.6812    9.3871  -33.8826 C   0  0  0  0  0  0  0  0  0  0  0  0
  -26.7303    8.9337  -33.1132 C   0  0  0  0  0  0  0  0  0  0  0  0
  -30.2134    7.8278  -31.8097 Cl  0  0  0  0  0  0  0  0  0  0  0  0
  1  2  1  0
  2  3  1  0
  2  4  1  0
  4  5  1  0
  5  6  1  0
  6  7  1  0
  7  8  2  0
  7  9  1  0
  9 10  2  0
 10 11  1  0
 11 12  2  0
 12 13  1  0
 13 14  2  0
 14 15  1  0
 15 16  2  0
 16 17  1  0
 17 18  2  0
  4 19  1  0
 19 20  1  0
 20 21  2  0
 21 22  1  0
 22 23  2  0
 23 24  1  0
 24 25  2  0
 18  9  1  0
 25 20  1  0
 17 12  1  0
M  END
$$$$
