
     RDKit          3D

 34 37  0  0  0  0  0  0  0  0999 V2000
  -13.1544   -8.2756  -28.6551 C   0  0  0  0  0  0  0  0  0  0  0  0
  -13.9968   -7.9209  -29.8639 C   0  0  0  0  0  0  0  0  0  0  0  0
  -14.3960   -6.5277  -29.7382 N   0  0  0  0  0  0  0  0  0  0  0  0
  -14.6418   -5.6896  -30.8629 C   0  0  0  0  0  0  0  0  0  0  0  0
  -14.5899   -6.1925  -32.0105 O   0  0  0  0  0  0  0  0  0  0  0  0
  -14.9470   -4.2723  -30.6638 C   0  0  0  0  0  0  0  0  0  0  0  0
  -15.3772   -3.7059  -29.5047 N   0  0  0  0  0  0  0  0  0  0  0  0
  -15.5319   -2.4595  -29.7247 O   0  0  0  0  0  0  0  0  0  0  0  0
  -15.2398   -2.1081  -30.9612 C   0  0  0  0  0  0  0  0  0  0  0  0
  -15.3225   -0.7628  -31.4944 C   0  0  0  0  0  0  0  0  0  0  0  0
  -14.2059    0.0269  -31.6128 C   0  0  0  0  0  0  0  0  0  0  0  0
  -14.2819    1.3245  -32.1268 C   0  0  0  0  0  0  0  0  0  0  0  0
  -13.0456    2.1306  -32.2331 C   0  0  0  0  0  0  0  0  0  0  0  0
  -12.3720    1.9761  -33.5686 C   0  0  0  0  0  0  0  0  0  0  0  0
  -12.0565    1.7936  -31.1571 C   0  0  0  0  0  0  0  0  0  0  0  0
  -15.4870    1.8347  -32.5252 C   0  0  0  0  0  0  0  0  0  0  0  0
  -15.5637    3.1458  -33.0443 O   0  0  0  0  0  0  0  0  0  0  0  0
  -16.6084    1.0528  -32.4105 C   0  0  0  0  0  0  0  0  0  0  0  0
  -16.5241   -0.2398  -31.8971 C   0  0  0  0  0  0  0  0  0  0  0  0
  -17.7201   -0.9624  -31.8179 O   0  0  0  0  0  0  0  0  0  0  0  0
  -14.8565   -3.2678  -31.5939 C   0  0  0  0  0  0  0  0  0  0  0  0
  -14.4372   -3.4015  -32.9737 C   0  0  0  0  0  0  0  0  0  0  0  0
  -13.1612   -3.7893  -33.3211 C   0  0  0  0  0  0  0  0  0  0  0  0
  -12.7374   -3.9226  -34.6266 C   0  0  0  0  0  0  0  0  0  0  0  0
  -13.6335   -3.6551  -35.6570 C   0  0  0  0  0  0  0  0  0  0  0  0
  -13.2244   -3.7914  -37.0753 C   0  0  0  0  0  0  0  0  0  0  0  0
  -13.5187   -5.0521  -37.6680 N   0  0  0  0  0  0  0  0  0  0  0  0
  -12.7541   -5.4212  -38.8104 C   0  0  0  0  0  0  0  0  0  0  0  0
  -13.5034   -5.1746  -40.1169 C   0  0  0  0  0  0  0  0  0  0  0  0
  -14.6429   -5.9364  -40.2178 O   0  0  0  0  0  0  0  0  0  0  0  0
  -15.1952   -6.2533  -38.9945 C   0  0  0  0  0  0  0  0  0  0  0  0
  -14.9155   -5.1990  -37.9391 C   0  0  0  0  0  0  0  0  0  0  0  0
  -14.9056   -3.2686  -35.2936 C   0  0  0  0  0  0  0  0  0  0  0  0
  -15.3320   -3.1345  -33.9866 C   0  0  0  0  0  0  0  0  0  0  0  0
  1  2  1  0
  2  3  1  0
  3  4  1  0
  4  5  2  0
  4  6  1  0
  6  7  2  0
  7  8  1  0
  8  9  1  0
  9 10  1  0
 10 11  2  0
 11 12  1  0
 12 13  1  0
 13 14  1  0
 13 15  1  0
 12 16  2  0
 16 17  1  0
 16 18  1  0
 18 19  2  0
 19 20  1  0
  9 21  2  0
 21 22  1  0
 22 23  2  0
 23 24  1  0
 24 25  2  0
 25 26  1  0
 26 27  1  0
 27 28  1  0
 28 29  1  0
 29 30  1  0
 30 31  1  0
 31 32  1  0
 25 33  1  0
 33 34  2  0
 21  6  1  0
 34 22  1  0
 19 10  1  0
 32 27  1  0
M  END
$$$$
