
     RDKit          3D

 20 22  0  0  0  0  0  0  0  0999 V2000
  -17.0513   37.8390  -21.4411 O   0  0  0  0  0  0  0  0  0  0  0  0
  -18.2430   37.7584  -21.8365 C   0  0  0  0  0  0  0  0  0  0  0  0
  -18.6888   36.4245  -22.2285 C   0  0  0  0  0  0  0  0  0  0  0  0
  -19.2832   35.9741  -23.3906 C   0  0  0  0  0  0  0  0  0  0  0  0
  -19.6610   34.7074  -23.4780 C   0  0  0  0  0  0  0  0  0  0  0  0
  -19.4621   33.8464  -22.4168 C   0  0  0  0  0  0  0  0  0  0  0  0
  -18.6687   34.9718  -21.2137 S   0  0  0  0  0  0  0  0  0  0  0  0
  -19.0941   38.9036  -21.9015 C   0  0  0  0  0  0  0  0  0  0  0  0
  -20.3868   38.9442  -22.3427 N   0  0  0  0  0  0  0  0  0  0  0  0
  -20.8494   40.1283  -22.2993 O   0  0  0  0  0  0  0  0  0  0  0  0
  -19.9222   40.9205  -21.8435 N   0  0  0  0  0  4  0  0  0  0  0  0
  -20.0364   42.2976  -21.6689 O   0  0  0  0  0  1  0  0  0  0  0  0
  -18.7925   40.2130  -21.5755 C   0  0  0  0  0  0  0  0  0  0  0  0
  -17.5217   40.7590  -21.1742 C   0  0  0  0  0  0  0  0  0  0  0  0
  -16.5767   39.9784  -20.8099 O   0  0  0  0  0  0  0  0  0  0  0  0
  -17.2755   42.1757  -21.1659 C   0  0  0  0  0  0  0  0  0  0  0  0
  -17.8275   43.1867  -21.9120 C   0  0  0  0  0  0  0  0  0  0  0  0
  -17.4185   44.4377  -21.7608 C   0  0  0  0  0  0  0  0  0  0  0  0
  -16.4117   44.7062  -20.8240 C   0  0  0  0  0  0  0  0  0  0  0  0
  -16.0791   43.0796  -20.1700 S   0  0  0  0  0  0  0  0  0  0  0  0
  1  2  2  0
  2  3  1  0
  3  4  2  0
  4  5  1  0
  5  6  2  0
  6  7  1  0
  2  8  1  0
  8  9  2  0
  9 10  1  0
 10 11  1  0
 11 12  1  0
 11 13  2  0
 13 14  1  0
 14 15  2  0
 14 16  1  0
 16 17  2  0
 17 18  1  0
 18 19  2  0
 19 20  1  0
  7  3  1  0
 13  8  1  0
 20 16  1  0
M  CHG  2  11   1  12  -1
M  END
$$$$
