
     RDKit          3D

 17 18  0  0  0  0  0  0  0  0999 V2000
  -18.0015   14.4808  -34.0432 C   0  0  0  0  0  0  0  0  0  0  0  0
  -18.0577   15.9387  -33.6723 C   0  0  0  0  0  0  0  0  0  0  0  0
  -17.3644   16.6952  -34.7891 C   0  0  0  0  0  0  0  0  0  0  0  0
  -19.4674   16.3749  -33.5258 C   0  0  0  0  0  0  0  0  0  0  0  0
  -20.4771   15.6451  -34.1101 C   0  0  0  0  0  0  0  0  0  0  0  0
  -21.8159   16.0179  -33.9988 C   0  0  0  0  0  0  0  0  0  0  0  0
  -22.1340   17.1384  -33.2903 C   0  0  0  0  0  0  0  0  0  0  0  0
  -23.4654   17.5672  -33.1408 O   0  0  0  0  0  0  0  0  0  0  0  0
  -21.1342   17.8784  -32.7004 C   0  0  0  0  0  0  0  0  0  0  0  0
  -19.7963   17.4966  -32.8176 C   0  0  0  0  0  0  0  0  0  0  0  0
  -17.3946   16.2045  -32.3697 C   0  0  0  0  0  0  0  0  0  0  0  0
  -16.4065   17.1558  -32.2729 C   0  0  0  0  0  0  0  0  0  0  0  0
  -15.7656   17.4274  -31.0636 C   0  0  0  0  0  0  0  0  0  0  0  0
  -16.1325   16.7237  -29.9369 C   0  0  0  0  0  0  0  0  0  0  0  0
  -15.5348   16.9422  -28.6939 O   0  0  0  0  0  0  0  0  0  0  0  0
  -17.1249   15.7675  -30.0313 C   0  0  0  0  0  0  0  0  0  0  0  0
  -17.7454   15.5164  -31.2409 C   0  0  0  0  0  0  0  0  0  0  0  0
  1  2  1  0
  2  3  1  0
  2  4  1  0
  4  5  2  0
  5  6  1  0
  6  7  2  0
  7  8  1  0
  7  9  1  0
  9 10  2  0
  2 11  1  0
 11 12  2  0
 12 13  1  0
 13 14  2  0
 14 15  1  0
 14 16  1  0
 16 17  2  0
 10  4  1  0
 17 11  1  0
M  END
$$$$
