
     RDKit          3D

 17 18  0  0  0  0  0  0  0  0999 V2000
  -17.8631   38.6378  -22.3995 Cl  0  0  0  0  0  0  0  0  0  0  0  0
  -19.6338   37.6435  -25.0814 Cl  0  0  0  0  0  0  0  0  0  0  0  0
  -19.1369   36.6055  -23.7446 C   0  0  0  0  0  0  0  0  0  0  0  0
  -19.8696   35.5117  -23.3572 C   0  0  0  0  0  0  0  0  0  0  0  0
  -19.4638   34.7180  -22.3140 C   0  0  0  0  0  0  0  0  0  0  0  0
  -18.2768   34.9967  -21.5996 C   0  0  0  0  0  0  0  0  0  0  0  0
  -17.8595   34.2717  -20.6089 N   0  0  0  0  0  0  0  0  0  0  0  0
  -16.2952   35.0660  -20.0513 S   0  0  0  0  0  0  0  0  0  0  0  0
  -16.4641   36.3020  -21.2993 N   0  0  0  0  0  0  0  0  0  0  0  0
  -17.5587   36.0663  -21.9773 C   0  0  0  0  0  0  0  0  0  0  0  0
  -17.9831   36.8739  -23.0481 C   0  0  0  0  0  0  0  0  0  0  0  0
  -17.2209   38.0183  -23.4570 N   0  0  0  0  0  0  0  0  0  0  0  0
  -17.4748   39.2825  -22.8834 C   0  0  0  0  0  0  0  0  0  0  0  0
  -18.5274   39.5481  -22.1881 N   0  0  0  0  0  0  0  0  0  0  0  0
  -18.5073   40.9230  -21.7350 C   0  0  0  0  0  0  0  0  0  0  0  0
  -17.0845   41.3261  -21.9361 C   0  0  0  0  0  0  0  0  0  0  0  0
  -16.6397   40.4248  -22.9750 N   0  0  0  0  0  0  0  0  0  0  0  0
  2  3  1  0
  3  4  1  0
  4  5  2  0
  5  6  1  0
  6  7  2  0
  7  8  1  0
  8  9  1  0
  9 10  2  0
 10 11  1  0
 11 12  1  0
 12 13  1  0
 13 14  2  0
 14 15  1  0
 15 16  1  0
 16 17  1  0
 11  3  2  0
 17 13  1  0
 10  6  1  0
M  END
$$$$
