
     RDKit          3D

 37 41  0  0  0  0  0  0  0  0999 V2000
  -14.5620   46.8781  -24.5982 C   0  0  0  0  0  0  0  0  0  0  0  0
  -14.8419   45.8597  -23.5359 C   0  0  0  0  0  0  0  0  0  0  0  0
  -13.6410   45.3541  -22.8468 C   0  0  0  0  0  0  0  0  0  0  0  0
  -12.3552   45.7205  -23.2158 C   0  0  0  0  0  0  0  0  0  0  0  0
  -11.2613   45.2223  -22.5404 C   0  0  0  0  0  0  0  0  0  0  0  0
  -11.4780   44.3543  -21.4935 C   0  0  0  0  0  0  0  0  0  0  0  0
  -12.7635   43.9638  -21.0951 C   0  0  0  0  0  0  0  0  0  0  0  0
  -12.9375   43.0222  -19.9645 C   0  0  0  0  0  0  0  0  0  0  0  0
  -11.7271   43.0109  -19.0604 C   0  0  0  0  0  0  0  0  0  0  0  0
  -13.8384   44.4726  -21.7822 C   0  0  0  0  0  0  0  0  0  0  0  0
  -15.1482   44.1011  -21.4054 N   0  0  0  0  0  0  0  0  0  0  0  0
  -15.7183   42.8586  -21.7816 C   0  0  0  0  0  0  0  0  0  0  0  0
  -15.0010   42.0594  -22.4375 O   0  0  0  0  0  0  0  0  0  0  0  0
  -17.0567   42.5560  -21.4154 N   0  0  0  0  0  0  0  0  0  0  0  0
  -17.5582   41.2225  -21.1204 C   0  0  0  0  0  0  0  0  0  0  0  0
  -18.8557   41.4191  -20.4693 C   0  0  0  0  0  0  0  0  0  0  0  0
  -19.8544   40.8124  -19.8179 N   0  0  0  0  0  0  0  0  0  0  0  0
  -20.7825   41.7211  -19.5068 N   0  0  0  0  0  0  0  0  0  0  0  0
  -20.4058   42.9316  -19.9487 C   0  0  0  0  0  0  0  0  0  0  0  0
  -21.1090   44.1552  -19.8243 N   0  0  0  0  0  0  0  0  0  0  0  0
  -22.0624   44.5198  -20.8043 C   0  0  0  0  0  0  0  0  0  0  0  0
  -22.0123   43.8903  -21.9115 O   0  0  0  0  0  0  0  0  0  0  0  0
  -23.0778   45.5631  -20.6030 C   0  0  0  0  0  0  0  0  0  0  0  0
  -22.9663   46.4767  -19.5759 C   0  0  0  0  0  0  0  0  0  0  0  0
  -23.9295   47.4752  -19.3867 C   0  0  0  0  0  0  0  0  0  0  0  0
  -25.0254   47.5940  -20.2084 C   0  0  0  0  0  0  0  0  0  0  0  0
  -26.0276   48.5785  -20.0623 N   0  0  0  0  0  0  0  0  0  0  0  0
  -27.1439   48.7441  -20.9590 C   0  0  0  0  0  0  0  0  0  0  0  0
  -28.3551   48.2046  -20.2176 C   0  0  0  0  0  0  0  0  0  0  0  0
  -28.1797   48.5694  -18.8251 N   0  0  0  0  0  0  0  0  0  0  0  0
  -29.3970   48.4738  -18.0826 C   0  0  0  0  0  0  0  0  0  0  0  0
  -27.4690   49.8231  -18.6493 C   0  0  0  0  0  0  0  0  0  0  0  0
  -25.9901   49.5067  -18.9426 C   0  0  0  0  0  0  0  0  0  0  0  0
  -25.1275   46.6616  -21.2463 C   0  0  0  0  0  0  0  0  0  0  0  0
  -24.1672   45.6674  -21.4337 C   0  0  0  0  0  0  0  0  0  0  0  0
  -19.1865   42.7705  -20.5637 C   0  0  0  0  0  0  0  0  0  0  0  0
  -18.1133   43.5116  -21.2803 C   0  0  0  0  0  0  0  0  0  0  0  0
  1  2  1  0
  2  3  1  0
  3  4  2  0
  4  5  1  0
  5  6  2  0
  6  7  1  0
  7  8  1  0
  8  9  1  0
  7 10  2  0
 10 11  1  0
 11 12  1  0
 12 13  2  0
 12 14  1  0
 14 15  1  0
 15 16  1  0
 16 17  1  0
 17 18  1  0
 18 19  2  0
 19 20  1  0
 20 21  1  0
 21 22  2  0
 21 23  1  0
 23 24  2  0
 24 25  1  0
 25 26  2  0
 26 27  1  0
 27 28  1  0
 28 29  1  0
 29 30  1  0
 30 31  1  0
 30 32  1  0
 32 33  1  0
 26 34  1  0
 34 35  2  0
 19 36  1  0
 36 37  1  0
 10  3  1  0
 37 14  1  0
 36 16  2  0
 35 23  1  0
 33 27  1  0
M  END
$$$$
