
     RDKit          3D

 24 27  0  0  0  0  0  0  0  0999 V2000
  -18.4415   -0.0192  -32.0810 C   0  0  0  0  0  0  0  0  0  0  0  0
  -18.1880   -0.8075  -33.3808 C   0  0  0  0  0  0  0  0  0  0  0  0
  -19.0781   -2.0271  -33.2711 C   0  0  0  0  0  0  0  0  0  0  0  0
  -20.3007   -2.0142  -34.1153 C   0  0  0  0  0  0  0  0  0  0  0  0
  -20.2157   -1.3391  -35.4259 C   0  0  0  0  0  0  0  0  0  0  0  0
  -20.5172   -2.1725  -36.5095 O   0  0  0  0  0  0  0  0  0  0  0  0
  -18.8397   -0.7337  -35.6990 C   0  0  0  0  0  0  0  0  0  0  0  0
  -18.6119    0.1283  -34.4710 C   0  0  0  0  0  0  0  0  0  0  0  0
  -17.5697    1.1678  -34.7079 C   0  0  0  0  0  0  0  0  0  0  0  0
  -16.3611    0.4434  -35.2648 C   0  0  0  0  0  0  0  0  0  0  0  0
  -15.7999   -0.4038  -34.1482 C   0  0  0  0  0  0  0  0  0  0  0  0
  -16.7678   -1.2612  -33.4521 C   0  0  0  0  0  0  0  0  0  0  0  0
  -16.2408   -1.5870  -32.0424 C   0  0  0  0  0  0  0  0  0  0  0  0
  -14.7204   -1.7687  -32.2434 C   0  0  0  0  0  0  0  0  0  0  0  0
  -14.1626   -0.3976  -32.2392 C   0  0  0  0  0  0  0  0  0  0  0  0
  -14.4515    0.1744  -30.8304 C   0  0  0  0  0  0  0  0  0  0  0  0
  -12.7292   -0.2040  -32.4903 C   0  0  0  0  0  0  0  0  0  0  0  0
  -12.0196   -1.1095  -33.3728 C   0  0  0  0  0  0  0  0  0  0  0  0
  -11.4671   -0.7352  -34.3698 O   0  0  0  0  0  0  0  0  0  0  0  0
  -11.9673   -2.5573  -33.0422 C   0  0  0  0  0  0  0  0  0  0  0  0
  -10.6822   -3.0874  -33.1285 O   0  0  0  0  0  0  0  0  0  0  0  0
  -12.7003    1.2397  -33.0027 C   0  0  0  0  0  0  0  0  0  0  0  0
  -13.8643    1.1585  -34.0077 C   0  0  0  0  0  0  0  0  0  0  0  0
  -14.9549    0.4511  -33.2302 C   0  0  0  0  0  0  0  0  0  0  0  0
  1  2  1  0
  2  3  1  0
  3  4  1  0
  4  5  1  0
  5  6  1  0
  5  7  1  0
  7  8  1  0
  8  9  1  0
  9 10  1  0
 10 11  1  0
 11 12  1  0
 12 13  1  0
 13 14  1  0
 14 15  1  0
 15 16  1  0
 15 17  1  0
 17 18  1  0
 18 19  2  0
 18 20  1  0
 20 21  1  0
 17 22  1  0
 22 23  1  0
 23 24  1  0
  8  2  1  0
 24 11  1  0
 12  2  1  0
 24 15  1  0
M  END
$$$$
