
     RDKit          3D

 29 31  0  0  0  0  0  0  0  0999 V2000
  -19.1211   18.9581  -33.3773 C   0  0  0  0  0  0  0  0  0  0  0  0
  -18.0293   18.0190  -33.3967 C   0  0  0  0  0  0  0  0  0  0  0  0
  -16.9575   18.4284  -34.0091 O   0  0  0  0  0  0  0  0  0  0  0  0
  -17.9705   16.6657  -32.8177 C   0  0  0  0  0  0  0  0  0  0  0  0
  -17.1301   16.3392  -31.8790 C   0  0  0  0  0  0  0  0  0  0  0  0
  -16.1466   17.2831  -31.2778 C   0  0  0  0  0  0  0  0  0  0  0  0
  -17.0306   14.9789  -31.4063 N   0  0  0  0  0  0  0  0  0  0  0  0
  -16.1289   14.6318  -30.3743 C   0  0  0  0  0  0  0  0  0  0  0  0
  -16.5102   14.9956  -29.0846 C   0  0  0  0  0  0  0  0  0  0  0  0
  -15.6845   14.6852  -28.0468 C   0  0  0  0  0  0  0  0  0  0  0  0
  -14.4991   14.0260  -28.2700 C   0  0  0  0  0  0  0  0  0  0  0  0
  -14.1387   13.6759  -29.5382 C   0  0  0  0  0  0  0  0  0  0  0  0
  -12.8500   12.9519  -29.8163 C   0  0  0  0  0  0  0  0  0  0  0  0
  -12.9835   12.2331  -30.9671 F   0  0  0  0  0  0  0  0  0  0  0  0
  -11.8805   13.9274  -29.9589 F   0  0  0  0  0  0  0  0  0  0  0  0
  -12.4790   12.1732  -28.7388 F   0  0  0  0  0  0  0  0  0  0  0  0
  -14.9397   13.9697  -30.6052 C   0  0  0  0  0  0  0  0  0  0  0  0
  -17.8310   13.9483  -31.9510 C   0  0  0  0  0  0  0  0  0  0  0  0
  -17.8159   12.7508  -31.6012 O   0  0  0  0  0  0  0  0  0  0  0  0
  -18.7211   14.3298  -32.9829 N   0  0  0  0  0  0  0  0  0  0  0  0
  -18.9788   15.6783  -33.2815 C   0  0  1  0  0  0  0  0  0  0  0  0
  -20.3375   16.0063  -32.8139 C   0  0  0  0  0  0  0  0  0  0  0  0
  -20.6631   15.7151  -31.5122 C   0  0  0  0  0  0  0  0  0  0  0  0
  -21.9452   16.0136  -31.0189 C   0  0  0  0  0  0  0  0  0  0  0  0
  -22.8762   16.6022  -31.8531 C   0  0  0  0  0  0  0  0  0  0  0  0
  -24.1960   16.9053  -31.3289 C   0  0  0  0  0  0  0  0  0  0  0  0
  -25.2235   17.1395  -30.9001 N   0  0  0  0  0  0  0  0  0  0  0  0
  -22.5298   16.8714  -33.1078 N   0  0  0  0  0  0  0  0  0  0  0  0
  -21.2890   16.5896  -33.6077 C   0  0  0  0  0  0  0  0  0  0  0  0
  1  2  1  0
  2  3  2  0
  2  4  1  0
  4  5  2  0
  5  6  1  0
  5  7  1  0
  7  8  1  0
  8  9  2  0
  9 10  1  0
 10 11  2  0
 11 12  1  0
 12 13  1  0
 13 14  1  0
 13 15  1  0
 13 16  1  0
 12 17  2  0
  7 18  1  0
 18 19  2  0
 18 20  1  0
 20 21  1  0
 21 22  1  1
 22 23  2  0
 23 24  1  0
 24 25  2  0
 25 26  1  0
 26 27  3  0
 25 28  1  0
 28 29  2  0
 21  4  1  0
 29 22  1  0
 17  8  1  0
M  END
$$$$
