
     RDKit          3D

 48 53  0  0  0  0  0  0  0  0999 V2000
   -4.4356   14.7659  -17.5018 C   0  0  0  0  0  0  0  0  0  0  0  0
   -3.4013   15.7279  -17.6301 O   0  0  0  0  0  0  0  0  0  0  0  0
   -2.1775   15.4785  -18.2001 C   0  0  0  0  0  0  0  0  0  0  0  0
   -2.0174   14.5598  -19.2235 C   0  0  0  0  0  0  0  0  0  0  0  0
   -0.7768   14.3343  -19.7714 C   0  0  0  0  0  0  0  0  0  0  0  0
    0.3168   15.0251  -19.3013 C   0  0  0  0  0  0  0  0  0  0  0  0
    0.1287   15.9494  -18.2647 C   0  0  0  0  0  0  0  0  0  0  0  0
   -1.1019   16.1893  -17.7041 C   0  0  0  0  0  0  0  0  0  0  0  0
   -1.2634   17.1138  -16.6731 O   0  0  0  0  0  0  0  0  0  0  0  0
   -0.7477   18.4280  -16.8605 C   0  0  0  0  0  0  0  0  0  0  0  0
    1.6710   14.8315  -19.8379 C   0  0  0  0  0  0  0  0  0  0  0  0
    1.7673   14.0192  -21.0087 N   0  0  0  0  0  0  0  0  0  0  0  0
    1.5022   14.7992  -22.2017 C   0  0  0  0  0  0  0  0  0  0  0  0
    2.7181   15.4668  -22.7764 C   0  0  0  0  0  0  0  0  0  0  0  0
    2.9291   16.8208  -22.1930 C   0  0  0  0  0  0  0  0  0  0  0  0
    2.5655   17.9657  -22.8613 C   0  0  0  0  0  0  0  0  0  0  0  0
    2.7824   19.2118  -22.3142 C   0  0  0  0  0  0  0  0  0  0  0  0
    3.3721   19.3331  -21.0772 C   0  0  0  0  0  0  0  0  0  0  0  0
    3.6152   20.6328  -20.5102 N   0  0  0  0  0  0  0  0  0  0  0  0
    3.9018   20.6882  -19.1171 C   0  0  0  0  0  0  0  0  0  0  0  0
    3.8310   19.6312  -18.4339 O   0  0  0  0  0  0  0  0  0  0  0  0
    4.2747   21.9194  -18.4409 C   0  0  0  0  0  0  0  0  0  0  0  0
    3.9232   23.1413  -18.9932 C   0  0  0  0  0  0  0  0  0  0  0  0
    4.2725   24.3190  -18.3612 C   0  0  0  0  0  0  0  0  0  0  0  0
    3.9472   25.5662  -18.8681 O   0  0  0  0  0  0  0  0  0  0  0  0
    2.6686   26.0970  -18.5072 C   0  0  0  0  0  0  0  0  0  0  0  0
    4.9739   24.2655  -17.1760 C   0  0  0  0  0  0  0  0  0  0  0  0
    5.3307   25.4353  -16.5309 O   0  0  0  0  0  0  0  0  0  0  0  0
    5.3688   25.5592  -15.1304 C   0  0  0  0  0  0  0  0  0  0  0  0
    5.3251   23.0487  -16.6237 C   0  0  0  0  0  0  0  0  0  0  0  0
    4.9762   21.8600  -17.2560 C   0  0  0  0  0  0  0  0  0  0  0  0
    5.3072   20.5840  -16.7361 N   0  0  0  0  0  0  0  0  0  0  0  0
    4.4027   19.8594  -15.8870 C   0  0  0  0  0  0  0  0  0  0  0  0
    3.1930   20.1700  -15.9409 O   0  0  0  0  0  0  0  0  0  0  0  0
    4.8195   18.8022  -14.9861 C   0  0  0  0  0  0  0  0  0  0  0  0
    5.5923   17.7562  -15.4673 C   0  0  0  0  0  0  0  0  0  0  0  0
    6.0079   16.7503  -14.6811 N   0  0  0  0  0  0  0  0  0  0  0  0
    5.7125   16.6777  -13.3859 C   0  0  0  0  0  0  0  0  0  0  0  0
    6.1638   15.6166  -12.6046 C   0  0  0  0  0  0  0  0  0  0  0  0
    5.8269   15.5941  -11.2676 C   0  0  0  0  0  0  0  0  0  0  0  0
    5.0568   16.6003  -10.7033 C   0  0  0  0  0  0  0  0  0  0  0  0
    4.6368   17.6243  -11.5161 C   0  0  0  0  0  0  0  0  0  0  0  0
    4.9453   17.6978  -12.8647 C   0  0  0  0  0  0  0  0  0  0  0  0
    4.4934   18.7619  -13.6486 C   0  0  0  0  0  0  0  0  0  0  0  0
    3.7370   18.1799  -20.4046 C   0  0  0  0  0  0  0  0  0  0  0  0
    3.5261   16.9296  -20.9400 C   0  0  0  0  0  0  0  0  0  0  0  0
    0.8399   12.9021  -20.9189 C   0  0  0  0  0  0  0  0  0  0  0  0
   -0.6122   13.3620  -20.8510 C   0  0  0  0  0  0  0  0  0  0  0  0
  1  2  1  0
  2  3  1  0
  3  4  2  0
  4  5  1  0
  5  6  2  0
  6  7  1  0
  7  8  2  0
  8  9  1  0
  9 10  1  0
  6 11  1  0
 11 12  1  0
 12 13  1  0
 13 14  1  0
 14 15  1  0
 15 16  2  0
 16 17  1  0
 17 18  2  0
 18 19  1  0
 19 20  1  0
 20 21  2  0
 20 22  1  0
 22 23  2  0
 23 24  1  0
 24 25  1  0
 25 26  1  0
 24 27  2  0
 27 28  1  0
 28 29  1  0
 27 30  1  0
 30 31  2  0
 31 32  1  0
 32 33  1  0
 33 34  2  0
 33 35  1  0
 35 36  2  0
 36 37  1  0
 37 38  2  0
 38 39  1  0
 39 40  2  0
 40 41  1  0
 41 42  2  0
 42 43  1  0
 43 44  2  0
 18 45  1  0
 45 46  2  0
 12 47  1  0
 47 48  1  0
  8  3  1  0
 46 15  1  0
 48  5  1  0
 31 22  1  0
 44 35  1  0
 43 38  1  0
M  END
$$$$
