
     RDKit          3D

 25 27  0  0  0  0  0  0  0  0999 V2000
  -23.7388   17.5328  -32.5064 O   0  0  0  0  0  0  0  0  0  0  0  0
  -24.6646   17.2980  -31.6921 C   0  0  0  0  0  0  0  0  0  0  0  0
  -25.6913   16.3178  -31.7443 N   0  0  0  0  0  0  0  0  0  0  0  0
  -26.5230   16.4239  -30.5948 C   0  0  0  0  0  0  0  0  0  0  0  0
  -27.5108   15.6874  -30.3637 O   0  0  0  0  0  0  0  0  0  0  0  0
  -25.9668   17.5248  -29.8116 C   0  0  0  0  0  0  0  0  0  0  0  0
  -26.5262   17.9340  -28.5336 C   0  0  0  0  0  0  0  0  0  0  0  0
  -27.1554   19.1302  -28.3118 C   0  0  0  0  0  0  0  0  0  0  0  0
  -27.6915   19.4817  -27.0885 C   0  0  0  0  0  0  0  0  0  0  0  0
  -27.6059   18.6053  -26.0124 C   0  0  0  0  0  0  0  0  0  0  0  0
  -26.9835   17.4057  -26.2126 C   0  0  0  0  0  0  0  0  0  0  0  0
  -26.4441   17.0544  -27.4525 C   0  0  0  0  0  0  0  0  0  0  0  0
  -25.8600   15.7723  -27.5223 N   0  0  0  0  0  4  0  0  0  0  0  0
  -24.8128   15.6094  -28.1553 O   0  0  0  0  0  0  0  0  0  0  0  0
  -26.4447   14.7027  -26.9160 O   0  0  0  0  0  1  0  0  0  0  0  0
  -24.9025   18.0339  -30.4258 C   0  0  0  0  0  0  0  0  0  0  0  0
  -24.0728   19.0918  -30.0028 N   0  0  0  0  0  0  0  0  0  0  0  0
  -23.9258   20.3308  -30.6664 C   0  0  0  0  0  0  0  0  0  0  0  0
  -24.8575   20.7351  -31.6458 C   0  0  0  0  0  0  0  0  0  0  0  0
  -24.7438   21.9215  -32.3311 C   0  0  0  0  0  0  0  0  0  0  0  0
  -23.6718   22.7439  -32.0421 C   0  0  0  0  0  0  0  0  0  0  0  0
  -23.5383   23.9491  -32.7242 O   0  0  0  0  0  0  0  0  0  0  0  0
  -22.7662   22.3576  -31.0958 C   0  0  0  0  0  0  0  0  0  0  0  0
  -21.4106   23.4205  -30.7543 Cl  0  0  0  0  0  0  0  0  0  0  0  0
  -22.8775   21.1656  -30.4039 C   0  0  0  0  0  0  0  0  0  0  0  0
  1  2  2  0
  2  3  1  0
  3  4  1  0
  4  5  2  0
  4  6  1  0
  6  7  1  0
  7  8  2  0
  8  9  1  0
  9 10  2  0
 10 11  1  0
 11 12  2  0
 12 13  1  0
 13 14  2  0
 13 15  1  0
  6 16  2  0
 16 17  1  0
 17 18  1  0
 18 19  2  0
 19 20  1  0
 20 21  2  0
 21 22  1  0
 21 23  1  0
 23 24  1  0
 23 25  2  0
 16  2  1  0
 25 18  1  0
 12  7  1  0
M  CHG  2  13   1  15  -1
M  END
$$$$
