
     RDKit          3D

 42 46  0  0  0  0  0  0  0  0999 V2000
  -24.6351    9.4183  -33.1579 C   0  0  0  0  0  0  0  0  0  0  0  0
  -24.3676   10.4385  -32.1131 C   0  0  0  0  0  0  0  0  0  0  0  0
  -24.9467   11.7473  -32.3474 N   0  0  0  0  0  0  0  0  0  0  0  0
  -26.0911   12.0381  -31.5141 C   0  0  0  0  0  0  0  0  0  0  0  0
  -27.0945   11.1023  -31.4002 C   0  0  0  0  0  0  0  0  0  0  0  0
  -28.1855   11.3031  -30.6073 C   0  0  0  0  0  0  0  0  0  0  0  0
  -29.2839   10.3510  -30.4589 C   0  0  0  0  0  0  0  0  0  0  0  0
  -30.5811   10.8178  -30.2649 C   0  0  0  0  0  0  0  0  0  0  0  0
  -31.6261    9.9117  -30.1274 C   0  0  0  0  0  0  0  0  0  0  0  0
  -31.4111    8.5560  -30.1784 C   0  0  0  0  0  0  0  0  0  0  0  0
  -32.5448    7.6302  -30.0221 C   0  0  0  0  0  0  0  0  0  0  0  0
  -33.2555    7.3894  -31.2528 N   0  0  0  0  0  0  0  0  0  0  0  0
  -32.3471    6.8034  -32.2133 C   0  0  0  0  0  0  0  0  0  0  0  0
  -33.0484    6.5920  -33.5560 C   0  0  0  0  0  0  0  0  0  0  0  0
  -34.2393    5.9068  -33.3870 O   0  0  0  0  0  0  0  0  0  0  0  0
  -34.3830    5.3898  -32.1090 C   0  0  0  0  0  0  0  0  0  0  0  0
  -34.3366    6.4469  -31.0268 C   0  0  0  0  0  0  0  0  0  0  0  0
  -30.1235    8.1140  -30.3708 C   0  0  0  0  0  0  0  0  0  0  0  0
  -29.0774    9.0004  -30.5087 C   0  0  0  0  0  0  0  0  0  0  0  0
  -28.2431   12.4994  -29.9148 C   0  0  0  0  0  0  0  0  0  0  0  0
  -27.2515   13.4426  -30.0182 C   0  0  0  0  0  0  0  0  0  0  0  0
  -27.4047   14.6613  -29.2627 C   0  0  0  0  0  0  0  0  0  0  0  0
  -26.6542   15.6170  -29.5717 O   0  0  0  0  0  0  0  0  0  0  0  0
  -28.3382   14.8212  -28.2202 N   0  0  0  0  0  0  0  0  0  0  0  0
  -28.6146   16.0171  -27.5003 C   0  0  0  0  0  0  0  0  0  0  0  0
  -29.2425   15.8537  -26.1804 C   0  0  0  0  0  0  0  0  0  0  0  0
  -28.5417   16.0906  -25.0160 C   0  0  0  0  0  0  0  0  0  0  0  0
  -27.1322   16.5177  -25.1358 C   0  0  0  0  0  0  0  0  0  0  0  0
  -29.1561   15.9244  -23.7700 C   0  0  0  0  0  0  0  0  0  0  0  0
  -30.4696   15.5222  -23.6680 C   0  0  0  0  0  0  0  0  0  0  0  0
  -31.1552   15.3429  -22.3496 C   0  0  0  0  0  0  0  0  0  0  0  0
  -31.1318   15.2969  -24.8159 N   0  0  0  0  0  0  0  0  0  0  0  0
  -30.5528   15.4521  -26.0415 C   0  0  0  0  0  0  0  0  0  0  0  0
  -31.2348   15.2198  -27.0836 O   0  0  0  0  0  0  0  0  0  0  0  0
  -26.1660   13.2248  -30.8165 C   0  0  0  0  0  0  0  0  0  0  0  0
  -25.0763   14.2542  -30.9364 C   0  0  0  0  0  0  0  0  0  0  0  0
  -24.4451   12.6881  -33.3187 C   0  0  0  0  0  0  0  0  0  0  0  0
  -25.1288   14.0206  -33.1634 C   0  0  0  0  0  0  0  0  0  0  0  0
  -25.1707   14.7857  -34.4543 C   0  0  0  0  0  0  0  0  0  0  0  0
  -24.0362   14.4340  -35.1998 O   0  0  0  0  0  0  0  0  0  0  0  0
  -24.2889   13.1877  -35.7744 C   0  0  0  0  0  0  0  0  0  0  0  0
  -24.5167   12.1331  -34.7022 C   0  0  0  0  0  0  0  0  0  0  0  0
  1  2  1  0
  2  3  1  0
  3  4  1  0
  4  5  2  0
  5  6  1  0
  6  7  1  0
  7  8  2  0
  8  9  1  0
  9 10  2  0
 10 11  1  0
 11 12  1  0
 12 13  1  0
 13 14  1  0
 14 15  1  0
 15 16  1  0
 16 17  1  0
 10 18  1  0
 18 19  2  0
  6 20  2  0
 20 21  1  0
 21 22  1  0
 22 23  2  0
 22 24  1  0
 24 25  1  0
 25 26  1  0
 26 27  2  0
 27 28  1  0
 27 29  1  0
 29 30  2  0
 30 31  1  0
 30 32  1  0
 32 33  1  0
 33 34  2  0
 21 35  2  0
 35 36  1  0
  3 37  1  0
 37 38  1  0
 38 39  1  0
 39 40  1  0
 40 41  1  0
 41 42  1  0
 35  4  1  0
 42 37  1  0
 19  7  1  0
 33 26  1  0
 17 12  1  0
M  END
$$$$
