
     RDKit          3D

 54 60  0  0  0  0  0  0  0  0999 V2000
  -20.0459   34.3949  -23.3661 C   0  0  0  0  0  0  0  0  0  0  0  0
  -19.6497   35.3291  -24.2316 C   0  0  0  0  0  0  0  0  0  0  0  0
  -19.1814   36.6292  -23.7314 C   0  0  2  0  0  0  0  0  0  0  0  0
  -17.9021   37.2052  -24.2524 C   0  0  0  0  0  0  0  0  0  0  0  0
  -17.9198   36.6434  -22.9003 C   0  0  1  0  0  0  0  0  0  0  0  0
  -18.0437   37.5372  -21.7384 N   0  0  0  0  0  0  0  0  0  0  0  0
  -18.7699   38.7336  -21.8439 C   0  0  0  0  0  0  0  0  0  0  0  0
  -19.9999   38.6692  -22.0905 O   0  0  0  0  0  0  0  0  0  0  0  0
  -18.1729   40.0787  -21.6817 C   0  0  2  0  0  0  0  0  0  0  0  0
  -18.5164   40.7525  -20.4019 C   0  0  0  0  0  0  0  0  0  0  0  0
  -18.3356   42.2555  -20.6961 C   0  0  2  0  0  0  0  0  0  0  0  0
  -18.8021   42.2813  -22.1131 C   0  0  0  0  0  0  0  0  0  0  0  0
  -18.5542   40.9950  -22.7137 N   0  0  0  0  0  0  0  0  0  0  0  0
  -18.7214   40.8820  -24.1440 C   0  0  0  0  0  0  0  0  0  0  0  0
  -18.1982   39.8887  -24.6947 O   0  0  0  0  0  0  0  0  0  0  0  0
  -19.4583   41.8528  -24.9662 C   0  0  2  0  0  0  0  0  0  0  0  0
  -20.2397   41.0734  -26.0093 C   0  0  0  0  0  0  0  0  0  0  0  0
  -20.2135   41.8045  -27.3437 C   0  0  0  0  0  0  0  0  0  0  0  0
  -19.6744   39.7055  -26.2399 C   0  0  0  0  0  0  0  0  0  0  0  0
  -21.6889   40.9308  -25.5979 C   0  0  0  0  0  0  0  0  0  0  0  0
  -18.5426   42.7850  -25.5644 N   0  0  0  0  0  0  0  0  0  0  0  0
  -18.8996   44.0002  -26.2056 C   0  0  0  0  0  0  0  0  0  0  0  0
  -18.1762   44.3526  -27.1754 O   0  0  0  0  0  0  0  0  0  0  0  0
  -19.9670   44.7085  -25.7660 O   0  0  0  0  0  0  0  0  0  0  0  0
  -20.1846   45.3017  -24.5044 C   0  0  2  0  0  0  0  0  0  0  0  0
  -21.5322   46.0577  -24.4598 C   0  0  0  0  0  0  0  0  0  0  0  0
  -20.1669   46.7592  -24.5308 C   0  0  1  0  0  0  0  0  0  0  0  0
  -19.8209   47.4926  -23.2912 C   0  0  0  0  0  0  0  0  0  0  0  0
  -19.1262   46.7147  -22.2279 C   0  0  0  0  0  0  0  0  0  0  0  0
  -17.6947   46.4016  -22.5274 C   0  0  0  0  0  0  0  0  0  0  0  0
  -16.9267   46.4004  -21.2244 C   0  0  0  0  0  0  0  0  0  0  0  0
  -17.6855   45.5536  -20.2241 C   0  0  0  0  0  0  0  0  0  0  0  0
  -16.7141   44.8234  -19.3715 C   0  0  0  0  0  0  0  0  0  0  0  0
  -16.0852   45.5887  -18.4523 N   0  0  0  0  0  0  0  0  0  0  0  0
  -15.1865   45.0589  -17.6228 C   0  0  0  0  0  0  0  0  0  0  0  0
  -14.5525   45.8551  -16.6911 C   0  0  0  0  0  0  0  0  0  0  0  0
  -13.6160   45.3555  -15.8136 C   0  0  0  0  0  0  0  0  0  0  0  0
  -13.3301   43.9937  -15.9054 C   0  0  0  0  0  0  0  0  0  0  0  0
  -12.3887   43.4789  -15.0277 O   0  0  0  0  0  0  0  0  0  0  0  0
  -11.6720   42.3237  -15.3875 C   0  0  0  0  0  0  0  0  0  0  0  0
  -13.9689   43.2081  -16.8391 C   0  0  0  0  0  0  0  0  0  0  0  0
  -14.8991   43.7300  -17.7034 C   0  0  0  0  0  0  0  0  0  0  0  0
  -15.5393   42.9982  -18.6248 N   0  0  0  0  0  0  0  0  0  0  0  0
  -16.4604   43.4681  -19.4967 C   0  0  0  0  0  0  0  0  0  0  0  0
  -17.1060   42.7317  -20.4265 O   0  0  0  0  0  0  0  0  0  0  0  0
  -17.2956   35.3380  -22.5990 C   0  0  0  0  0  0  0  0  0  0  0  0
  -17.0894   34.5092  -23.5462 O   0  0  0  0  0  0  0  0  0  0  0  0
  -16.8998   34.9311  -21.2976 N   0  0  0  0  0  0  0  0  0  0  0  0
  -18.0555   34.2390  -20.1913 S   0  0  0  0  0  6  0  0  0  0  0  0
  -17.6603   34.6943  -18.8150 O   0  0  0  0  0  0  0  0  0  0  0  0
  -18.0975   32.7477  -20.2978 O   0  0  0  0  0  0  0  0  0  0  0  0
  -19.6697   34.8759  -20.5488 C   0  0  0  0  0  0  0  0  0  0  0  0
  -20.3133   34.4647  -21.8312 C   0  0  0  0  0  0  0  0  0  0  0  0
  -20.8401   33.9263  -20.5234 C   0  0  0  0  0  0  0  0  0  0  0  0
  1  2  2  0
  3  2  1  6
  3  4  1  0
  4  5  1  0
  5  6  1  1
  6  7  1  0
  7  8  2  0
  9  7  1  6
  9 10  1  0
 11 10  1  6
 11 12  1  0
 12 13  1  0
 13 14  1  0
 14 15  2  0
 14 16  1  0
 16 17  1  6
 17 18  1  0
 17 19  1  0
 17 20  1  0
 16 21  1  0
 21 22  1  0
 22 23  2  0
 22 24  1  0
 24 25  1  0
 25 26  1  6
 27 26  1  1
 27 28  1  0
 28 29  1  0
 29 30  1  0
 30 31  1  0
 31 32  1  0
 32 33  1  0
 33 34  2  0
 34 35  1  0
 35 36  2  0
 36 37  1  0
 37 38  2  0
 38 39  1  0
 39 40  1  0
 38 41  1  0
 41 42  2  0
 42 43  1  0
 43 44  2  0
 44 45  1  0
  5 46  1  0
 46 47  2  0
 46 48  1  0
 48 49  1  0
 49 50  2  0
 49 51  2  0
 49 52  1  0
 52 53  1  0
 53 54  1  0
  5  3  1  0
 13  9  1  0
 27 25  1  0
 44 33  1  0
 54 52  1  0
 45 11  1  0
 42 35  1  0
M  END
$$$$
