
     RDKit          3D

 34 37  0  0  0  0  0  0  0  0999 V2000
  -27.8201   27.7357  -31.2223 C   0  0  0  0  0  0  0  0  0  0  0  0
  -27.8545   26.3849  -30.6043 C   0  0  0  0  0  0  0  0  0  0  0  0
  -28.4039   25.2817  -31.4254 C   0  0  0  0  0  0  0  0  0  0  0  0
  -28.4994   23.9977  -30.6515 N   0  0  0  0  0  0  0  0  0  0  0  0
  -29.6443   23.8130  -29.8302 C   0  0  0  0  0  0  0  0  0  0  0  0
  -29.5511   22.7478  -28.7834 C   0  0  0  0  0  0  0  0  0  0  0  0
  -30.7795   22.6598  -27.9101 C   0  0  0  0  0  0  0  0  0  0  0  0
  -27.4452   23.1257  -30.8614 C   0  0  0  0  0  0  0  0  0  0  0  0
  -27.5135   22.0708  -30.0588 O   0  0  0  0  0  0  0  0  0  0  0  0
  -26.3024   23.0785  -31.7171 C   0  0  0  0  0  0  0  0  0  0  0  0
  -26.5352   23.3498  -33.0252 C   0  0  0  0  0  0  0  0  0  0  0  0
  -25.6785   23.4003  -34.1934 C   0  0  0  0  0  0  0  0  0  0  0  0
  -26.1755   24.1572  -35.2321 C   0  0  0  0  0  0  0  0  0  0  0  0
  -25.4994   24.2245  -36.4323 C   0  0  0  0  0  0  0  0  0  0  0  0
  -24.3236   23.5195  -36.5615 C   0  0  0  0  0  0  0  0  0  0  0  0
  -23.5930   23.4719  -37.8281 C   0  0  0  0  0  0  0  0  0  0  0  0
  -22.8128   24.5116  -38.2712 C   0  0  0  0  0  0  0  0  0  0  0  0
  -22.0795   24.3931  -39.4601 C   0  0  0  0  0  0  0  0  0  0  0  0
  -22.1107   23.2481  -40.2199 C   0  0  0  0  0  0  0  0  0  0  0  0
  -21.3364   23.0190  -41.4281 C   0  0  0  0  0  0  0  0  0  0  0  0
  -21.8552   23.4185  -42.5470 O   0  0  0  0  0  0  0  0  0  0  0  0
  -20.0844   22.4129  -41.5424 N   0  0  0  0  0  0  0  0  0  0  0  0
  -19.2578   22.2080  -42.7014 C   0  0  0  0  0  0  0  0  0  0  0  0
  -18.5907   20.8723  -42.4238 C   0  0  0  0  0  0  0  0  0  0  0  0
  -18.9722   20.4801  -41.0065 C   0  0  0  0  0  0  0  0  0  0  0  0
  -19.3364   21.8280  -40.4240 C   0  0  0  0  0  0  0  0  0  0  0  0
  -22.9033   22.1990  -39.7713 C   0  0  0  0  0  0  0  0  0  0  0  0
  -23.6267   22.3071  -38.6042 C   0  0  0  0  0  0  0  0  0  0  0  0
  -23.8148   22.7527  -35.5060 C   0  0  0  0  0  0  0  0  0  0  0  0
  -24.4908   22.6895  -34.3160 C   0  0  0  0  0  0  0  0  0  0  0  0
  -23.8657   21.8646  -33.3096 N   0  0  0  0  0  0  0  0  0  0  0  0
  -24.0921   21.9550  -32.0369 C   0  0  0  0  0  0  0  0  0  0  0  0
  -23.3289   21.0075  -31.3003 N   0  0  0  0  0  0  0  0  0  0  0  0
  -24.9482   22.8322  -31.2039 C   0  0  0  0  0  0  0  0  0  0  0  0
  1  2  1  0
  2  3  1  0
  3  4  1  0
  4  5  1  0
  5  6  1  0
  6  7  1  0
  4  8  1  0
  8  9  2  0
  8 10  1  0
 10 11  2  0
 11 12  1  0
 12 13  2  0
 13 14  1  0
 14 15  2  0
 15 16  1  0
 16 17  2  0
 17 18  1  0
 18 19  2  0
 19 20  1  0
 20 21  2  0
 20 22  1  0
 22 23  1  0
 23 24  1  0
 24 25  1  0
 25 26  1  0
 19 27  1  0
 27 28  2  0
 15 29  1  0
 29 30  2  0
 30 31  1  0
 31 32  2  0
 32 33  1  0
 32 34  1  0
 34 10  1  0
 30 12  1  0
 28 16  1  0
 26 22  1  0
M  END
$$$$
