
     RDKit          3D

 25 26  0  0  0  0  0  0  0  0999 V2000
  -17.9091   32.1063  -21.8754 C   0  0  0  0  0  0  0  0  0  0  0  0
  -18.8522   32.7548  -22.8698 C   0  0  0  0  0  0  0  0  0  0  0  0
  -18.0228   32.9194  -24.1747 C   0  0  0  0  0  0  0  0  0  0  0  0
  -19.2385   34.0724  -22.5115 N   0  0  0  0  0  0  0  0  0  0  0  0
  -18.0573   35.0598  -21.8039 S   0  0  0  0  0  6  0  0  0  0  0  0
  -16.7036   34.3710  -21.9045 O   0  0  0  0  0  0  0  0  0  0  0  0
  -18.3438   35.1308  -20.3182 O   0  0  0  0  0  0  0  0  0  0  0  0
  -17.9726   36.6759  -22.4495 C   0  0  0  0  0  0  0  0  0  0  0  0
  -17.6036   36.8768  -23.7503 C   0  0  0  0  0  0  0  0  0  0  0  0
  -17.5417   38.1578  -24.2445 C   0  0  0  0  0  0  0  0  0  0  0  0
  -17.8347   39.2743  -23.4935 C   0  0  0  0  0  0  0  0  0  0  0  0
  -17.7556   40.5432  -24.0426 C   0  0  0  0  0  0  0  0  0  0  0  0
  -17.2766   40.7328  -25.7155 Cl  0  0  0  0  0  0  0  0  0  0  0  0
  -18.0526   41.6519  -23.2757 C   0  0  0  0  0  0  0  0  0  0  0  0
  -18.4092   41.4288  -22.0120 N   0  0  0  0  0  0  0  0  0  0  0  0
  -18.5030   40.2065  -21.4234 C   0  0  0  0  0  0  0  0  0  0  0  0
  -18.8945   40.0673  -20.0791 N   0  0  0  0  0  0  0  0  0  0  0  0
  -19.2996   41.2206  -19.3500 C   0  0  0  0  0  0  0  0  0  0  0  0
  -19.1874   42.4063  -19.8317 N   0  0  0  0  0  0  0  0  0  0  0  0
  -19.8449   41.1272  -18.0346 N   0  0  0  0  0  0  0  0  0  0  0  0
  -18.2110   39.0724  -22.1676 C   0  0  0  0  0  0  0  0  0  0  0  0
  -18.2754   37.7904  -21.6647 C   0  0  0  0  0  0  0  0  0  0  0  0
  -19.9262   31.8245  -23.2338 C   0  0  0  0  0  0  0  0  0  0  0  0
  -19.7078   30.6190  -23.4730 O   0  0  0  0  0  0  0  0  0  0  0  0
  -21.2331   32.2612  -23.3261 O   0  0  0  0  0  0  0  0  0  0  0  0
  1  2  1  0
  2  3  1  0
  2  4  1  0
  4  5  1  0
  5  6  2  0
  5  7  2  0
  5  8  1  0
  8  9  2  0
  9 10  1  0
 10 11  2  0
 11 12  1  0
 12 13  1  0
 12 14  2  0
 14 15  1  0
 15 16  2  0
 16 17  1  0
 17 18  1  0
 18 19  2  0
 18 20  1  0
 16 21  1  0
 21 22  2  0
  2 23  1  0
 23 24  2  0
 23 25  1  0
 22  8  1  0
 21 11  1  0
M  END
$$$$
