
     RDKit          3D

 27 30  0  0  0  0  0  0  0  0999 V2000
  -17.8977   17.9709  -33.1920 C   0  0  0  0  0  0  0  0  0  0  0  0
  -17.0634   17.7318  -31.9777 C   0  0  0  0  0  0  0  0  0  0  0  0
  -17.3670   16.7517  -31.1773 C   0  0  0  0  0  0  0  0  0  0  0  0
  -18.4514   15.8211  -31.2741 C   0  0  0  0  0  0  0  0  0  0  0  0
  -19.2002   15.7559  -30.1976 O   0  0  0  0  0  0  0  0  0  0  0  0
  -18.8758   14.9666  -32.2879 N   0  0  0  0  0  0  0  0  0  0  0  0
  -20.1869   14.3383  -32.1773 C   0  0  0  0  0  0  0  0  0  0  0  0
  -20.3189   12.9766  -32.3238 C   0  0  0  0  0  0  0  0  0  0  0  0
  -21.5730   12.3698  -32.2187 C   0  0  0  0  0  0  0  0  0  0  0  0
  -22.6906   13.1501  -31.9647 C   0  0  0  0  0  0  0  0  0  0  0  0
  -24.0076   12.8777  -31.8101 N   0  0  0  0  0  0  0  0  0  0  0  0
  -24.6594   14.0045  -31.5804 N   0  0  0  0  0  0  0  0  0  0  0  0
  -23.8118   15.0510  -31.5741 C   0  0  0  0  0  0  0  0  0  0  0  0
  -22.5648   14.5033  -31.8184 C   0  0  0  0  0  0  0  0  0  0  0  0
  -21.3250   15.0685  -31.9264 C   0  0  0  0  0  0  0  0  0  0  0  0
  -16.3513   16.4913  -30.0760 C   0  0  0  0  0  0  0  0  0  0  0  0
  -15.4038   15.4564  -30.5859 C   0  0  0  0  0  0  0  0  0  0  0  0
  -15.4084   14.1770  -30.0539 C   0  0  0  0  0  0  0  0  0  0  0  0
  -14.5186   13.2484  -30.5395 C   0  0  0  0  0  0  0  0  0  0  0  0
  -13.6100   13.5586  -31.5543 C   0  0  0  0  0  0  0  0  0  0  0  0
  -12.7528   12.6146  -32.0019 F   0  0  0  0  0  0  0  0  0  0  0  0
  -13.6353   14.8320  -32.0545 C   0  0  0  0  0  0  0  0  0  0  0  0
  -14.5202   15.7819  -31.5823 C   0  0  0  0  0  0  0  0  0  0  0  0
  -15.7064   17.6341  -29.5804 N   0  0  0  0  0  0  0  0  0  0  0  0
  -15.3558   18.6817  -30.4647 C   0  0  0  0  0  0  0  0  0  0  0  0
  -14.4533   19.5244  -30.1544 O   0  0  0  0  0  0  0  0  0  0  0  0
  -16.0533   18.7327  -31.6840 N   0  0  0  0  0  0  0  0  0  0  0  0
  1  2  1  0
  2  3  2  0
  3  4  1  0
  4  5  2  0
  4  6  1  0
  6  7  1  0
  7  8  2  0
  8  9  1  0
  9 10  2  0
 10 11  1  0
 11 12  1  0
 12 13  2  0
 13 14  1  0
 14 15  2  0
  3 16  1  0
 16 17  1  0
 17 18  2  0
 18 19  1  0
 19 20  2  0
 20 21  1  0
 20 22  1  0
 22 23  2  0
 16 24  1  0
 24 25  1  0
 25 26  2  0
 25 27  1  0
 27  2  1  0
 15  7  1  0
 23 17  1  0
 14 10  1  0
M  END
$$$$
