
     RDKit          3D

 20 22  0  0  0  0  0  0  0  0999 V2000
  -19.0825   35.8463  -23.5725 O   0  0  0  0  0  0  0  0  0  0  0  0
  -18.9258   36.5151  -22.5200 C   0  0  0  0  0  0  0  0  0  0  0  0
  -18.6159   35.8810  -21.3257 O   0  0  0  0  0  0  0  0  0  0  0  0
  -18.0122   34.6331  -21.4035 C   0  0  0  0  0  0  0  0  0  0  0  0
  -16.6963   34.4008  -21.0599 C   0  0  0  0  0  0  0  0  0  0  0  0
  -15.7502   35.7500  -20.5002 Cl  0  0  0  0  0  0  0  0  0  0  0  0
  -16.1109   33.1558  -21.1426 C   0  0  0  0  0  0  0  0  0  0  0  0
  -16.8432   32.0745  -21.5834 C   0  0  0  0  0  0  0  0  0  0  0  0
  -16.0887   30.4971  -21.6843 Cl  0  0  0  0  0  0  0  0  0  0  0  0
  -18.1585   32.2896  -21.9304 C   0  0  0  0  0  0  0  0  0  0  0  0
  -18.9147   31.2311  -22.3737 C   0  0  0  0  0  0  0  0  0  0  0  0
  -20.2267   31.4735  -22.7140 C   0  0  0  0  0  0  0  0  0  0  0  0
  -20.7829   32.7177  -22.6229 C   0  0  0  0  0  0  0  0  0  0  0  0
  -20.0260   33.7454  -22.1857 N   0  0  0  0  0  0  0  0  0  0  0  0
  -18.7430   33.5305  -21.8483 C   0  0  0  0  0  0  0  0  0  0  0  0
  -19.0826   37.9673  -22.6105 C   0  0  0  0  0  0  0  0  0  0  0  0
  -19.1445   38.7237  -23.7596 C   0  0  0  0  0  0  0  0  0  0  0  0
  -19.2952   40.0475  -23.4067 C   0  0  0  0  0  0  0  0  0  0  0  0
  -19.3195   40.0435  -22.0290 C   0  0  0  0  0  0  0  0  0  0  0  0
  -19.1937   38.8180  -21.5948 O   0  0  0  0  0  0  0  0  0  0  0  0
  1  2  2  0
  2  3  1  0
  3  4  1  0
  4  5  2  0
  5  6  1  0
  5  7  1  0
  7  8  2  0
  8  9  1  0
  8 10  1  0
 10 11  2  0
 11 12  1  0
 12 13  2  0
 13 14  1  0
 14 15  2  0
  2 16  1  0
 16 17  2  0
 17 18  1  0
 18 19  2  0
 19 20  1  0
 15  4  1  0
 20 16  1  0
 15 10  1  0
M  END
$$$$
