
     RDKit          3D

 29 33  0  0  0  0  0  0  0  0999 V2000
  -15.3707   49.2914  -21.9458 C   0  0  0  0  0  0  0  0  0  0  0  0
  -16.0201   48.2947  -20.9809 C   0  0  0  0  0  0  0  0  0  0  0  0
  -15.9080   48.8283  -19.5498 C   0  0  0  0  0  0  0  0  0  0  0  0
  -15.4390   47.0566  -21.1309 O   0  0  0  0  0  0  0  0  0  0  0  0
  -16.0324   45.8556  -21.4030 C   0  0  0  0  0  0  0  0  0  0  0  0
  -16.9553   45.7282  -22.4007 C   0  0  0  0  0  0  0  0  0  0  0  0
  -17.5456   44.4808  -22.6544 C   0  0  0  0  0  0  0  0  0  0  0  0
  -17.2155   43.3730  -21.9175 C   0  0  0  0  0  0  0  0  0  0  0  0
  -17.8269   42.0956  -22.1855 C   0  0  0  0  0  0  0  0  0  0  0  0
  -17.0333   40.9687  -22.3694 C   0  0  0  0  0  0  0  0  0  0  0  0
  -17.5483   39.7545  -22.6190 N   0  0  0  0  0  0  0  0  0  0  0  0
  -18.8934   39.6465  -22.6901 C   0  0  0  0  0  0  0  0  0  0  0  0
  -19.6669   38.5347  -22.9288 C   0  0  0  0  0  0  0  0  0  0  0  0
  -19.2947   37.1493  -23.1796 C   0  0  0  0  0  0  0  0  0  0  0  0
  -19.8059   36.4337  -24.2487 C   0  0  0  0  0  0  0  0  0  0  0  0
  -19.4221   35.1314  -24.4359 C   0  0  0  0  0  0  0  0  0  0  0  0
  -18.5592   34.5105  -23.6155 N   0  0  0  0  0  0  0  0  0  0  0  0
  -18.0477   35.1865  -22.5672 C   0  0  0  0  0  0  0  0  0  0  0  0
  -17.1467   34.5378  -21.7113 C   0  0  0  0  0  0  0  0  0  0  0  0
  -16.6335   35.2448  -20.6449 C   0  0  0  0  0  0  0  0  0  0  0  0
  -16.9984   36.5550  -20.4281 C   0  0  0  0  0  0  0  0  0  0  0  0
  -17.8817   37.1892  -21.2680 C   0  0  0  0  0  0  0  0  0  0  0  0
  -18.4087   36.4919  -22.3478 C   0  0  0  0  0  0  0  0  0  0  0  0
  -20.9702   38.9753  -22.8935 C   0  0  0  0  0  0  0  0  0  0  0  0
  -20.9522   40.2966  -22.6431 N   0  0  0  0  0  0  0  0  0  0  0  0
  -19.7124   40.7247  -22.5165 N   0  0  0  0  0  0  0  0  0  0  0  0
  -19.1853   41.9315  -22.2678 C   0  0  0  0  0  0  0  0  0  0  0  0
  -16.2906   43.4957  -20.9159 C   0  0  0  0  0  0  0  0  0  0  0  0
  -15.6954   44.7112  -20.6460 C   0  0  0  0  0  0  0  0  0  0  0  0
  1  2  1  0
  2  3  1  0
  2  4  1  0
  4  5  1  0
  5  6  2  0
  6  7  1  0
  7  8  2  0
  8  9  1  0
  9 10  1  0
 10 11  2  0
 11 12  1  0
 12 13  2  0
 13 14  1  0
 14 15  2  0
 15 16  1  0
 16 17  2  0
 17 18  1  0
 18 19  2  0
 19 20  1  0
 20 21  2  0
 21 22  1  0
 22 23  2  0
 13 24  1  0
 24 25  2  0
 25 26  1  0
 26 27  1  0
  8 28  1  0
 28 29  2  0
 29  5  1  0
 27  9  2  0
 26 12  1  0
 23 14  1  0
 23 18  1  0
M  END
$$$$
