
     RDKit          3D

 11 11  0  0  0  0  0  0  0  0999 V2000
  -30.6334   20.5870  -26.0629 O   0  0  0  0  0  0  0  0  0  0  0  0
  -29.3615   20.7778  -26.6042 C   0  0  0  0  0  0  0  0  0  0  0  0
  -29.4445   20.6207  -28.1123 C   0  0  1  0  0  0  0  0  0  0  0  0
  -30.3146   19.4880  -28.3659 N   0  0  0  0  0  0  0  0  0  0  0  0
  -30.2698   19.1212  -29.7773 C   0  0  0  0  0  0  0  0  0  0  0  0
  -30.8635   20.2615  -30.5533 C   0  0  2  0  0  0  0  0  0  0  0  0
  -30.6899   20.0005  -31.9210 O   0  0  0  0  0  0  0  0  0  0  0  0
  -30.1607   21.5453  -30.2510 C   0  0  1  0  0  0  0  0  0  0  0  0
  -30.8543   22.5722  -30.8953 O   0  0  0  0  0  0  0  0  0  0  0  0
  -30.0242   21.8242  -28.7752 C   0  0  2  0  0  0  0  0  0  0  0  0
  -29.2289   22.9545  -28.6221 O   0  0  0  0  0  0  0  0  0  0  0  0
  1  2  1  0
  3  2  1  1
  3  4  1  0
  4  5  1  0
  5  6  1  0
  6  7  1  6
  6  8  1  0
  8  9  1  6
  8 10  1  0
 10 11  1  6
 10  3  1  0
M  END
$$$$
