
     RDKit          3D

 26 28  0  0  0  0  0  0  0  0999 V2000
  -23.7767   21.8030  -38.1603 C   0  0  0  0  0  0  0  0  0  0  0  0
  -22.7225   20.8425  -37.7146 C   0  0  0  0  0  0  0  0  0  0  0  0
  -23.1319   19.7361  -37.0169 C   0  0  0  0  0  0  0  0  0  0  0  0
  -22.1838   18.7966  -36.6014 C   0  0  0  0  0  0  0  0  0  0  0  0
  -20.8865   19.0104  -36.9028 C   0  0  0  0  0  0  0  0  0  0  0  0
  -20.4943   20.1441  -37.6132 C   0  0  0  0  0  0  0  0  0  0  0  0
  -21.4045   21.0887  -38.0360 C   0  0  0  0  0  0  0  0  0  0  0  0
  -20.9704   22.2850  -38.7569 C   0  0  0  0  0  0  0  0  0  0  0  0
  -20.5285   23.2424  -38.0733 O   0  0  0  0  0  0  0  0  0  0  0  0
  -21.0143   22.4470  -40.1970 C   0  0  0  0  0  0  0  0  0  0  0  0
  -21.0400   23.7006  -40.8004 C   0  0  0  0  0  0  0  0  0  0  0  0
  -21.0851   23.8297  -42.1705 C   0  0  0  0  0  0  0  0  0  0  0  0
  -21.1072   22.7327  -43.0118 C   0  0  0  0  0  0  0  0  0  0  0  0
  -21.1588   22.9092  -44.4623 C   0  0  0  0  0  0  0  0  0  0  0  0
  -21.7390   22.0433  -45.1530 O   0  0  0  0  0  0  0  0  0  0  0  0
  -20.5837   24.0075  -45.0852 O   0  0  0  0  0  0  0  0  0  0  0  0
  -21.0819   21.4877  -42.4234 C   0  0  0  0  0  0  0  0  0  0  0  0
  -21.0367   21.3632  -41.0478 C   0  0  0  0  0  0  0  0  0  0  0  0
  -19.8245   18.0735  -36.5087 C   0  0  0  0  0  0  0  0  0  0  0  0
  -18.9813   17.8634  -37.7798 C   0  0  0  0  0  0  0  0  0  0  0  0
  -18.8721   18.7824  -35.5383 C   0  0  0  0  0  0  0  0  0  0  0  0
  -20.2224   16.7565  -36.0084 C   0  0  0  0  0  0  0  0  0  0  0  0
  -21.6782   16.4377  -36.0123 C   0  0  0  0  0  0  0  0  0  0  0  0
  -22.5802   17.6000  -35.8450 C   0  0  0  0  0  0  0  0  0  0  0  0
  -24.0042   17.2528  -36.2923 C   0  0  0  0  0  0  0  0  0  0  0  0
  -22.6813   18.0056  -34.3768 C   0  0  0  0  0  0  0  0  0  0  0  0
  1  2  1  0
  2  3  2  0
  3  4  1  0
  4  5  2  0
  5  6  1  0
  6  7  2  0
  7  8  1  0
  8  9  2  0
  8 10  1  0
 10 11  2  0
 11 12  1  0
 12 13  2  0
 13 14  1  0
 14 15  2  0
 14 16  1  0
 13 17  1  0
 17 18  2  0
  5 19  1  0
 19 20  1  0
 19 21  1  0
 19 22  1  0
 22 23  1  0
 23 24  1  0
 24 25  1  0
 24 26  1  0
  7  2  1  0
 18 10  1  0
 24  4  1  0
M  END
$$$$
