
     RDKit          3D

 19 21  0  0  0  0  0  0  0  0999 V2000
  -12.3022   11.0412  -28.2477 C   0  0  0  0  0  0  0  0  0  0  0  0
  -13.1994   12.2232  -28.2274 C   0  0  0  0  0  0  0  0  0  0  0  0
  -13.5540   12.7600  -27.0060 C   0  0  0  0  0  0  0  0  0  0  0  0
  -14.4007   13.8747  -26.9997 C   0  0  0  0  0  0  0  0  0  0  0  0
  -14.8483   14.3951  -28.1946 C   0  0  0  0  0  0  0  0  0  0  0  0
  -14.5091   13.8782  -29.4242 C   0  0  0  0  0  0  0  0  0  0  0  0
  -14.9770   14.4224  -30.6701 C   0  0  0  0  0  0  0  0  0  0  0  0
  -14.0781   14.5800  -31.7056 C   0  0  0  0  0  0  0  0  0  0  0  0
  -14.5010   15.0996  -32.9107 C   0  0  0  0  0  0  0  0  0  0  0  0
  -15.7846   15.4569  -33.0915 N   0  0  0  0  0  0  0  0  0  0  0  0
  -16.6746   15.3031  -32.0725 C   0  0  0  0  0  0  0  0  0  0  0  0
  -18.0226   15.5898  -32.0102 C   0  0  0  0  0  0  0  0  0  0  0  0
  -18.8842   16.1497  -33.0437 C   0  0  0  0  0  0  0  0  0  0  0  0
  -20.0033   16.9361  -32.6713 N   0  0  0  0  0  0  0  0  0  0  0  0
  -18.6733   15.9617  -34.2678 O   0  0  0  0  0  0  0  0  0  0  0  0
  -18.3988   15.2282  -30.7341 C   0  0  0  0  0  0  0  0  0  0  0  0
  -17.2924   14.7604  -30.1229 N   0  0  0  0  0  0  0  0  0  0  0  0
  -16.2433   14.7940  -30.9031 N   0  0  0  0  0  0  0  0  0  0  0  0
  -13.6634   12.7660  -29.4081 C   0  0  0  0  0  0  0  0  0  0  0  0
  1  2  1  0
  2  3  2  0
  3  4  1  0
  4  5  2  0
  5  6  1  0
  6  7  1  0
  7  8  2  0
  8  9  1  0
  9 10  2  0
 10 11  1  0
 11 12  2  0
 12 13  1  0
 13 14  1  0
 13 15  2  0
 12 16  1  0
 16 17  2  0
 17 18  1  0
  6 19  2  0
 19  2  1  0
 18  7  1  0
 18 11  1  0
M  END
$$$$
