
     RDKit          3D

 18 18  0  0  0  0  0  0  0  0999 V2000
  -13.6567   17.6731  -37.9961 Cl  0  0  0  0  0  0  0  0  0  0  0  0
  -13.6546   17.6737  -37.9990 Cl  0  0  0  0  0  0  0  0  0  0  0  0
  -10.6833   17.8216  -39.5667 C   0  0  0  0  0  0  0  0  0  0  0  0
  -10.9305   17.5997  -38.2298 C   0  0  0  0  0  0  0  0  0  0  0  0
  -12.2127   17.5750  -37.7169 C   0  0  0  0  0  0  0  0  0  0  0  0
  -13.2731   17.7800  -38.5756 C   0  0  0  0  0  0  0  0  0  0  0  0
  -14.5569   17.7532  -38.0788 C   0  0  0  0  0  0  0  0  0  0  0  0
  -14.8709   17.5507  -36.7146 N   0  0  0  0  0  0  0  0  0  0  0  0
  -14.5699   18.4507  -35.6271 C   0  0  0  0  0  0  0  0  0  0  0  0
  -14.3324   17.5799  -34.4012 C   0  0  0  0  0  0  0  0  0  0  0  0
  -15.4921   16.8567  -33.9868 N   0  0  0  0  0  0  0  0  0  0  0  0
  -16.3881   16.6871  -35.1148 C   0  0  0  0  0  0  0  0  0  0  0  0
  -15.5578   16.3330  -36.3351 C   0  0  0  0  0  0  0  0  0  0  0  0
  -15.5843   17.9622  -39.0095 C   0  0  0  0  0  0  0  0  0  0  0  0
  -15.3374   18.1830  -40.3446 C   0  0  0  0  0  0  0  0  0  0  0  0
  -14.0556   18.2072  -40.8216 C   0  0  0  0  0  0  0  0  0  0  0  0
  -13.0216   18.0051  -39.9337 C   0  0  0  0  0  0  0  0  0  0  0  0
  -11.7261   18.0289  -40.4462 C   0  0  0  0  0  0  0  0  0  0  0  0
  3  4  2  0
  4  5  1  0
  5  6  2  0
  6  7  1  0
  7  8  1  0
  8  9  1  0
  9 10  1  0
 10 11  1  0
 11 12  1  0
 12 13  1  0
  7 14  2  0
 14 15  1  0
 15 16  2  0
 16 17  1  0
 17 18  2  0
 18  3  1  0
 17  6  1  0
 13  8  1  0
M  END
$$$$
