
     RDKit          3D

 29 32  0  0  0  0  0  0  0  0999 V2000
  -29.6803   19.9097  -24.0204 N   0  0  0  0  0  0  0  0  0  0  0  0
  -29.4685   20.4465  -25.3191 C   0  0  0  0  0  0  0  0  0  0  0  0
  -29.1244   21.7334  -25.5423 N   0  0  0  0  0  0  0  0  0  0  0  0
  -28.9285   22.2230  -26.7770 C   0  0  0  0  0  0  0  0  0  0  0  0
  -29.0784   21.4076  -27.8395 N   0  0  0  0  0  0  0  0  0  0  0  0
  -29.4180   20.1207  -27.6943 C   0  0  0  0  0  0  0  0  0  0  0  0
  -29.6181   19.6249  -26.4144 C   0  0  0  0  0  0  0  0  0  0  0  0
  -29.9923   18.2515  -26.0738 C   0  0  0  0  0  0  0  0  0  0  0  0
  -29.9347   17.9588  -24.8642 O   0  0  0  0  0  0  0  0  0  0  0  0
  -30.4173   17.2036  -26.9692 N   0  0  0  0  0  0  0  0  0  0  0  0
  -30.8328   15.9841  -26.3749 C   0  0  0  0  0  0  0  0  0  0  0  0
  -32.1414   15.5592  -26.6065 C   0  0  0  0  0  0  0  0  0  0  0  0
  -32.6511   14.4078  -26.0887 C   0  0  0  0  0  0  0  0  0  0  0  0
  -31.8253   13.6303  -25.2976 C   0  0  0  0  0  0  0  0  0  0  0  0
  -32.3591   12.3901  -24.7325 C   0  0  1  0  0  0  0  0  0  0  0  0
  -32.8699   12.5366  -23.3151 C   0  0  0  0  0  0  0  0  0  0  0  0
  -33.2773   11.1790  -22.8420 C   0  0  0  0  0  0  0  0  0  0  0  0
  -34.3397   10.5382  -23.7207 C   0  0  2  0  0  0  0  0  0  0  0  0
  -34.6189    9.1751  -23.1858 C   0  0  0  0  0  0  0  0  0  0  0  0
  -34.2551    8.0607  -24.0784 C   0  0  0  0  0  0  0  0  0  0  0  0
  -33.0672    7.7724  -24.3315 O   0  0  0  0  0  0  0  0  0  0  0  0
  -35.2516    7.2988  -24.6631 O   0  0  0  0  0  0  0  0  0  0  0  0
  -33.8134   10.4879  -25.1388 C   0  0  0  0  0  0  0  0  0  0  0  0
  -33.5376   11.9360  -25.5690 C   0  0  0  0  0  0  0  0  0  0  0  0
  -30.5436   14.0224  -25.0560 C   0  0  0  0  0  0  0  0  0  0  0  0
  -30.0463   15.1929  -25.5903 C   0  0  0  0  0  0  0  0  0  0  0  0
  -30.4779   17.2306  -28.4011 C   0  0  0  0  0  0  0  0  0  0  0  0
  -29.3774   18.0290  -29.0475 C   0  0  0  0  0  0  0  0  0  0  0  0
  -29.5285   19.4275  -28.8938 O   0  0  0  0  0  0  0  0  0  0  0  0
  1  2  1  0
  2  3  2  0
  3  4  1  0
  4  5  2  0
  5  6  1  0
  6  7  2  0
  7  8  1  0
  8  9  2  0
  8 10  1  0
 10 11  1  0
 11 12  2  0
 12 13  1  0
 13 14  2  0
 15 14  1  6
 15 16  1  0
 16 17  1  0
 17 18  1  0
 18 19  1  1
 19 20  1  0
 20 21  2  0
 20 22  1  0
 18 23  1  0
 23 24  1  0
 14 25  1  0
 25 26  2  0
 10 27  1  0
 27 28  1  0
 28 29  1  0
  7  2  1  0
 26 11  1  0
 29  6  1  0
 24 15  1  0
M  END
$$$$
