
     RDKit          3D

 18 19  0  0  0  0  0  0  0  0999 V2000
  -21.3111    2.4301  -30.1410 C   0  0  0  0  0  0  0  0  0  0  0  0
  -21.0000    0.9564  -30.2665 C   0  0  0  0  0  0  0  0  0  0  0  0
  -19.7916    0.7252  -30.9634 O   0  0  0  0  0  0  0  0  0  0  0  0
  -19.6810    0.6678  -32.3308 C   0  0  0  0  0  0  0  0  0  0  0  0
  -20.7006    0.7468  -33.0302 O   0  0  0  0  0  0  0  0  0  0  0  0
  -18.3195    0.5097  -32.9491 C   0  0  0  0  0  0  0  0  0  0  0  0
  -18.2450    0.0961  -34.2878 C   0  0  0  0  0  0  0  0  0  0  0  0
  -19.3469   -0.2036  -35.1771 N   0  0  0  0  0  0  0  0  0  0  0  0
  -16.5183    0.0161  -34.6658 S   0  0  0  0  0  0  0  0  0  0  0  0
  -15.9894    0.5544  -32.9647 C   0  0  0  0  0  0  0  0  0  0  0  0
  -14.5772    0.6847  -32.6785 C   0  0  0  0  0  0  0  0  0  0  0  0
  -13.6526   -0.2281  -33.0812 C   0  0  0  0  0  0  0  0  0  0  0  0
  -12.3084   -0.0372  -32.7353 C   0  0  0  0  0  0  0  0  0  0  0  0
  -11.8877    1.0363  -32.0058 C   0  0  0  0  0  0  0  0  0  0  0  0
  -12.8270    1.9540  -31.6035 C   0  0  0  0  0  0  0  0  0  0  0  0
  -14.1455    1.7829  -31.9325 C   0  0  0  0  0  0  0  0  0  0  0  0
  -17.1539    0.7323  -32.3136 C   0  0  0  0  0  0  0  0  0  0  0  0
  -17.1447    1.2125  -30.8593 C   0  0  0  0  0  0  0  0  0  0  0  0
  1  2  1  0
  2  3  1  0
  3  4  1  0
  4  5  2  0
  4  6  1  0
  6  7  2  0
  7  8  1  0
  7  9  1  0
  9 10  1  0
 10 11  1  0
 11 12  2  0
 12 13  1  0
 13 14  2  0
 14 15  1  0
 15 16  2  0
 10 17  2  0
 17 18  1  0
 17  6  1  0
 16 11  1  0
M  END
$$$$
