
     RDKit          3D

 41 43  0  0  0  0  0  0  0  0999 V2000
  -21.6657   16.6438  -41.8513 C   0  0  0  0  0  0  0  0  0  0  0  0
  -21.9902   16.7961  -40.4070 C   0  0  0  0  0  0  0  0  0  0  0  0
  -21.1417   16.6839  -39.3364 C   0  0  0  0  0  0  0  0  0  0  0  0
  -21.7868   16.8859  -38.1740 N   0  0  0  0  0  0  0  0  0  0  0  0
  -21.2449   16.8527  -36.8392 C   0  0  0  0  0  0  0  0  0  0  0  0
  -21.6998   17.7365  -35.8840 C   0  0  0  0  0  0  0  0  0  0  0  0
  -21.1806   17.7090  -34.5947 C   0  0  0  0  0  0  0  0  0  0  0  0
  -21.6414   18.6186  -33.5916 N   0  0  0  0  0  0  0  0  0  0  0  0
  -21.0171   19.8806  -33.4090 C   0  0  0  0  0  0  0  0  0  0  0  0
  -20.0513   20.1430  -34.1713 O   0  0  0  0  0  0  0  0  0  0  0  0
  -21.4330   20.8539  -32.4095 C   0  0  0  0  0  0  0  0  0  0  0  0
  -20.7724   22.0563  -32.3009 C   0  0  0  0  0  0  0  0  0  0  0  0
  -21.1279   23.0108  -31.3704 C   0  0  0  0  0  0  0  0  0  0  0  0
  -22.1731   22.7827  -30.5081 C   0  0  0  0  0  0  0  0  0  0  0  0
  -22.5713   23.7799  -29.5098 C   0  0  0  0  0  0  0  0  0  0  0  0
  -22.8685   21.5656  -30.5924 C   0  0  0  0  0  0  0  0  0  0  0  0
  -23.9277   21.3964  -29.6812 N   0  0  0  0  0  0  0  0  0  0  0  0
  -24.7693   20.2634  -29.5687 C   0  0  0  0  0  0  0  0  0  0  0  0
  -24.6763   19.1717  -30.3243 N   0  0  0  0  0  0  0  0  0  0  0  0
  -25.4725   18.1028  -30.2161 C   0  0  0  0  0  0  0  0  0  0  0  0
  -26.4865   18.0936  -29.2524 C   0  0  0  0  0  0  0  0  0  0  0  0
  -26.6088   19.2002  -28.4595 C   0  0  0  0  0  0  0  0  0  0  0  0
  -27.6406   19.2898  -27.4182 C   0  0  0  0  0  0  0  0  0  0  0  0
  -28.5066   18.2597  -27.2198 C   0  0  0  0  0  0  0  0  0  0  0  0
  -29.4729   18.3931  -26.2142 C   0  0  0  0  0  0  0  0  0  0  0  0
  -29.5296   19.5361  -25.4614 C   0  0  0  0  0  0  0  0  0  0  0  0
  -28.6677   20.5427  -25.6702 N   0  0  0  0  0  0  0  0  0  0  0  0
  -27.7419   20.4252  -26.6274 C   0  0  0  0  0  0  0  0  0  0  0  0
  -25.7647   20.2315  -28.6366 N   0  0  0  0  0  0  0  0  0  0  0  0
  -22.4917   20.6310  -31.5311 C   0  0  0  0  0  0  0  0  0  0  0  0
  -20.2035   16.7948  -34.2599 C   0  0  0  0  0  0  0  0  0  0  0  0
  -19.7347   15.9021  -35.2008 C   0  0  0  0  0  0  0  0  0  0  0  0
  -18.6793   14.9318  -34.7979 C   0  0  0  0  0  0  0  0  0  0  0  0
  -17.5561   15.6972  -34.4840 F   0  0  0  0  0  0  0  0  0  0  0  0
  -19.0770   14.3291  -33.6250 F   0  0  0  0  0  0  0  0  0  0  0  0
  -18.3808   14.0519  -35.7964 F   0  0  0  0  0  0  0  0  0  0  0  0
  -20.2677   15.9524  -36.4706 C   0  0  0  0  0  0  0  0  0  0  0  0
  -23.0694   17.1312  -38.5089 C   0  0  0  0  0  0  0  0  0  0  0  0
  -23.2028   17.0799  -39.8460 N   0  0  0  0  0  0  0  0  0  0  0  0
  -22.9018   18.5782  -33.2856 Cl  0  0  0  0  0  0  0  0  0  0  0  0
  -23.4614   19.0241  -32.9444 O   0  0  0  0  0  0  0  0  0  0  0  0
  1  2  1  0
  2  3  2  0
  3  4  1  0
  4  5  1  0
  5  6  2  0
  6  7  1  0
  7  8  1  0
  8  9  1  0
  9 10  2  0
  9 11  1  0
 11 12  2  0
 12 13  1  0
 13 14  2  0
 14 15  1  0
 14 16  1  0
 16 17  1  0
 17 18  1  0
 18 19  2  0
 19 20  1  0
 20 21  2  0
 21 22  1  0
 22 23  1  0
 23 24  2  0
 24 25  1  0
 25 26  2  0
 26 27  1  0
 27 28  2  0
 22 29  2  0
 16 30  2  0
  7 31  2  0
 31 32  1  0
 32 33  1  0
 33 34  1  0
 33 35  1  0
 33 36  1  0
 32 37  2  0
  4 38  1  0
 38 39  2  0
 39  2  1  0
 37  5  1  0
 30 11  1  0
 29 18  1  0
 28 23  1  0
M  END
$$$$
