
     RDKit          3D

 33 37  0  0  0  0  0  0  0  0999 V2000
   -1.7062   10.3460  -35.1745 C   0  0  0  0  0  0  0  0  0  0  0  0
   -0.6017    9.3552  -34.8453 C   0  0  0  0  0  0  0  0  0  0  0  0
   -0.4349    9.1205  -33.3785 C   0  0  0  0  0  0  0  0  0  0  0  0
   -0.7000    8.1304  -35.6624 C   0  0  0  0  0  0  0  0  0  0  0  0
    0.2031    7.7044  -36.6453 C   0  0  0  0  0  0  0  0  0  0  0  0
    1.3707    8.2736  -37.1000 C   0  0  0  0  0  0  0  0  0  0  0  0
    2.0916    7.6512  -38.0903 C   0  0  0  0  0  0  0  0  0  0  0  0
    3.3284    8.1945  -38.6158 C   0  0  0  0  0  0  0  0  0  0  0  0
    4.2135    8.8999  -37.8429 C   0  0  0  0  0  0  0  0  0  0  0  0
    5.3979    9.4035  -38.4081 C   0  0  0  0  0  0  0  0  0  0  0  0
    5.6574    9.1929  -39.6986 N   0  0  0  0  0  0  0  0  0  0  0  0
    4.7744    8.4931  -40.4554 C   0  0  0  0  0  0  0  0  0  0  0  0
    5.0290    8.2486  -41.8312 N   0  0  0  0  0  0  0  0  0  0  0  0
    4.4012    7.1357  -42.4816 C   0  0  1  0  0  0  0  0  0  0  0  0
    3.1524    7.4740  -43.2181 C   0  0  0  0  0  0  0  0  0  0  0  0
    3.4059    8.5809  -44.2472 C   0  0  0  0  0  0  0  0  0  0  0  0
    4.6716    8.2961  -45.0302 C   0  0  2  0  0  0  0  0  0  0  0  0
    4.5139    8.5023  -46.4351 N   0  0  0  0  0  0  0  0  0  0  0  0
    3.4015    7.8366  -47.0294 C   0  0  0  0  0  0  0  0  0  0  0  0
    2.2519    8.7351  -47.3610 C   0  0  0  0  0  0  0  0  0  0  0  0
    1.9879    8.7991  -48.8600 C   0  0  0  0  0  0  0  0  0  0  0  0
    3.1325    9.2533  -49.4685 O   0  0  0  0  0  0  0  0  0  0  0  0
    4.2331    8.4406  -49.2328 C   0  0  0  0  0  0  0  0  0  0  0  0
    3.8954    7.2485  -48.3591 C   0  0  0  0  0  0  0  0  0  0  0  0
    4.9764    6.8058  -44.8336 C   0  0  0  0  0  0  0  0  0  0  0  0
    5.4137    6.5210  -43.4250 C   0  0  0  0  0  0  0  0  0  0  0  0
    3.6477    8.0183  -39.9019 N   0  0  0  0  0  0  0  0  0  0  0  0
    1.5852    6.4457  -38.5915 C   0  0  0  0  0  0  0  0  0  0  0  0
    0.4226    5.8922  -38.1291 C   0  0  0  0  0  0  0  0  0  0  0  0
   -0.2866    6.5368  -37.1313 C   0  0  0  0  0  0  0  0  0  0  0  0
   -1.4101    6.2763  -36.4846 N   0  0  0  0  0  0  0  0  0  0  0  0
   -1.6955    7.2197  -35.5847 N   0  0  0  0  0  0  0  0  0  0  0  0
   -2.8395    7.2441  -34.7177 C   0  0  0  0  0  0  0  0  0  0  0  0
  1  2  1  0
  2  3  1  0
  2  4  1  0
  4  5  2  0
  5  6  1  0
  6  7  2  0
  7  8  1  0
  8  9  2  0
  9 10  1  0
 10 11  2  0
 11 12  1  0
 12 13  1  0
 14 13  1  6
 14 15  1  0
 15 16  1  0
 16 17  1  0
 17 18  1  6
 18 19  1  0
 19 20  1  0
 20 21  1  0
 21 22  1  0
 22 23  1  0
 23 24  1  0
 17 25  1  0
 25 26  1  0
 12 27  2  0
  7 28  1  0
 28 29  2  0
 29 30  1  0
 30 31  2  0
 31 32  1  0
 32 33  1  0
 32  4  1  0
 30  5  1  0
 27  8  1  0
 26 14  1  0
 24 19  1  0
M  END
$$$$
