
     RDKit          3D

 19 19  0  0  0  0  0  0  0  0999 V2000
  -17.6778   43.6188  -23.1958 C   0  0  0  0  0  0  0  0  0  0  0  0
  -17.8587   43.3858  -21.6932 C   0  0  0  0  0  0  0  0  0  0  0  0
  -17.3008   44.5612  -20.9561 C   0  0  0  0  0  0  0  0  0  0  0  0
  -17.0710   42.1238  -21.3752 C   0  0  0  0  0  0  0  0  0  0  0  0
  -17.7466   40.9189  -21.9467 C   0  0  0  0  0  0  0  0  0  0  0  0
  -19.0190   40.5464  -21.5684 C   0  0  0  0  0  0  0  0  0  0  0  0
  -19.6188   39.4118  -22.1255 C   0  0  0  0  0  0  0  0  0  0  0  0
  -18.9405   38.6592  -23.0565 C   0  0  0  0  0  0  0  0  0  0  0  0
  -19.5472   37.4695  -23.6523 C   0  0  1  0  0  0  0  0  0  0  0  0
  -19.5961   37.6041  -25.1576 C   0  0  0  0  0  0  0  0  0  0  0  0
  -18.9120   36.2029  -23.2477 C   0  0  0  0  0  0  0  0  0  0  0  0
  -17.6575   36.1706  -23.1759 O   0  0  0  0  0  0  0  0  0  0  0  0
  -19.6877   35.0505  -22.9469 N   0  0  0  0  0  0  0  0  0  0  0  0
  -19.1103   33.8460  -21.8405 S   0  0  0  0  0  6  0  0  0  0  0  0
  -17.4847   34.2651  -21.3097 C   0  0  0  0  0  0  0  0  0  0  0  0
  -19.0402   32.5040  -22.5264 O   0  0  0  0  0  0  0  0  0  0  0  0
  -19.9852   33.7473  -20.6246 O   0  0  0  0  0  0  0  0  0  0  0  0
  -17.6729   39.0460  -23.4215 C   0  0  0  0  0  0  0  0  0  0  0  0
  -17.0565   40.1724  -22.8793 C   0  0  0  0  0  0  0  0  0  0  0  0
  1  2  1  0
  2  3  1  0
  2  4  1  0
  4  5  1  0
  5  6  2  0
  6  7  1  0
  7  8  2  0
  8  9  1  0
  9 10  1  6
  9 11  1  0
 11 12  2  0
 11 13  1  0
 13 14  1  0
 14 15  1  0
 14 16  2  0
 14 17  2  0
  8 18  1  0
 18 19  2  0
 19  5  1  0
M  END
$$$$
