
     RDKit          3D

 39 43  0  0  0  0  0  0  0  0999 V2000
  -12.8219   44.5589  -18.2618 C   0  0  0  0  0  0  0  0  0  0  0  0
  -14.0589   43.8762  -18.2525 O   0  0  0  0  0  0  0  0  0  0  0  0
  -15.2106   44.4647  -18.7598 C   0  0  0  0  0  0  0  0  0  0  0  0
  -15.4197   45.7987  -18.4801 C   0  0  0  0  0  0  0  0  0  0  0  0
  -16.5192   46.4600  -18.9342 C   0  0  0  0  0  0  0  0  0  0  0  0
  -16.7560   47.8653  -18.6521 C   0  0  0  0  0  0  0  0  0  0  0  0
  -16.0118   48.4626  -17.8007 O   0  0  0  0  0  0  0  0  0  0  0  0
  -17.7654   48.6316  -19.2618 N   0  0  0  0  0  0  0  0  0  0  0  0
  -18.0822   49.9702  -18.7745 C   0  0  0  0  0  0  0  0  0  0  0  0
  -19.0702   50.6902  -19.6338 C   0  0  0  0  0  0  0  0  0  0  0  0
  -18.6364   52.1257  -19.8556 C   0  0  0  0  0  0  0  0  0  0  0  0
  -18.2304   52.7245  -18.5994 N   0  0  0  0  0  0  0  0  0  0  0  0
  -17.9134   54.1194  -18.7778 C   0  0  0  0  0  0  0  0  0  0  0  0
  -17.1009   52.0555  -17.9925 C   0  0  0  0  0  0  0  0  0  0  0  0
  -16.7955   50.7716  -18.7386 C   0  0  0  0  0  0  0  0  0  0  0  0
  -17.4287   45.7389  -19.6937 C   0  0  0  0  0  0  0  0  0  0  0  0
  -17.2146   44.3986  -19.9728 C   0  0  0  0  0  0  0  0  0  0  0  0
  -16.1161   43.7162  -19.5260 C   0  0  0  0  0  0  0  0  0  0  0  0
  -15.8234   42.3808  -19.7562 N   0  0  0  0  0  0  0  0  0  0  0  0
  -16.6173   41.4943  -20.5331 C   0  0  0  0  0  0  0  0  0  0  0  0
  -16.7233   40.1941  -20.3257 N   0  0  0  0  0  0  0  0  0  0  0  0
  -17.4572   39.3177  -21.0256 C   0  0  0  0  0  0  0  0  0  0  0  0
  -18.1824   39.8111  -22.0746 C   0  0  0  0  0  0  0  0  0  0  0  0
  -18.1119   41.1936  -22.3498 C   0  0  0  0  0  0  0  0  0  0  0  0
  -17.3464   41.9830  -21.5866 N   0  0  0  0  0  0  0  0  0  0  0  0
  -18.7876   41.8997  -23.3792 N   0  0  0  0  0  0  0  0  0  0  0  0
  -18.1371   43.0715  -23.8763 C   0  0  0  0  0  0  0  0  0  0  0  0
  -18.2137   43.2188  -25.3852 C   0  0  0  0  0  0  0  0  0  0  0  0
  -19.0424   44.4684  -25.6157 C   0  0  0  0  0  0  0  0  0  0  0  0
  -18.9417   45.2906  -24.3512 C   0  0  0  0  0  0  0  0  0  0  0  0
  -18.4450   44.3726  -23.2560 C   0  0  0  0  0  0  0  0  0  0  0  0
  -20.0727   41.5407  -23.9437 C   0  0  0  0  0  0  0  0  0  0  0  0
  -19.9773   40.2629  -24.7504 C   0  0  0  0  0  0  0  0  0  0  0  0
  -18.9087   40.3060  -25.6365 F   0  0  0  0  0  0  0  0  0  0  0  0
  -21.1413   40.1605  -25.4930 F   0  0  0  0  0  0  0  0  0  0  0  0
  -19.8038   39.0676  -23.9075 C   0  0  0  0  0  0  0  0  0  0  0  0
  -20.4892   38.0219  -24.1825 O   0  0  0  0  0  0  0  0  0  0  0  0
  -18.9611   38.8602  -22.7830 N   0  0  0  0  0  0  0  0  0  0  0  0
  -18.8645   37.5168  -22.2613 C   0  0  0  0  0  0  0  0  0  0  0  0
  1  2  1  0
  2  3  1  0
  3  4  2  0
  4  5  1  0
  5  6  1  0
  6  7  2  0
  6  8  1  0
  8  9  1  0
  9 10  1  0
 10 11  1  0
 11 12  1  0
 12 13  1  0
 12 14  1  0
 14 15  1  0
  5 16  2  0
 16 17  1  0
 17 18  2  0
 18 19  1  0
 19 20  1  0
 20 21  2  0
 21 22  1  0
 22 23  2  0
 23 24  1  0
 24 25  2  0
 24 26  1  0
 26 27  1  0
 27 28  1  0
 28 29  1  0
 29 30  1  0
 30 31  1  0
 26 32  1  0
 32 33  1  0
 33 34  1  0
 33 35  1  0
 33 36  1  0
 36 37  2  0
 36 38  1  0
 38 39  1  0
 18  3  1  0
 25 20  1  0
 31 27  1  0
 15  9  1  0
 38 23  1  0
M  END
$$$$
