
     RDKit          3D

 31 33  0  0  0  0  0  0  0  0999 V2000
  -11.5910   15.9070  -38.1444 C   0  0  0  0  0  0  0  0  0  0  0  0
  -12.5708   17.0330  -38.0386 C   0  0  0  0  0  0  0  0  0  0  0  0
  -13.0060   17.4258  -36.8127 C   0  0  0  0  0  0  0  0  0  0  0  0
  -13.9111   18.4598  -36.6834 C   0  0  0  0  0  0  0  0  0  0  0  0
  -14.4293   18.8849  -35.0538 S   0  0  0  0  0  0  0  0  0  0  0  0
  -14.5640   17.5137  -33.9177 C   0  0  0  0  0  0  0  0  0  0  0  0
  -15.9308   17.3087  -33.4184 C   0  0  0  0  0  0  0  0  0  0  0  0
  -17.2980   16.5461  -34.1836 S   0  0  0  0  0  0  0  0  0  0  0  0
  -18.4649   16.7833  -32.7978 C   0  0  0  0  0  0  0  0  0  0  0  0
  -19.8483   16.3339  -32.8603 C   0  0  0  0  0  0  0  0  0  0  0  0
  -20.2060   15.3414  -33.7269 C   0  0  0  0  0  0  0  0  0  0  0  0
  -21.5000   14.8859  -33.8020 C   0  0  0  0  0  0  0  0  0  0  0  0
  -22.4325   15.4557  -32.9801 C   0  0  0  0  0  0  0  0  0  0  0  0
  -23.8514   15.0047  -33.0058 C   0  0  0  0  0  0  0  0  0  0  0  0
  -24.0243   14.0490  -33.9867 F   0  0  0  0  0  0  0  0  0  0  0  0
  -24.1868   14.3973  -31.8001 F   0  0  0  0  0  0  0  0  0  0  0  0
  -24.6661   16.0771  -33.2721 F   0  0  0  0  0  0  0  0  0  0  0  0
  -22.1156   16.4657  -32.0856 C   0  0  0  0  0  0  0  0  0  0  0  0
  -23.0617   16.9969  -31.2990 F   0  0  0  0  0  0  0  0  0  0  0  0
  -20.8269   16.8923  -32.0369 C   0  0  0  0  0  0  0  0  0  0  0  0
  -17.7035   17.3839  -31.9671 N   0  0  0  0  0  0  0  0  0  0  0  0
  -16.4741   17.6732  -32.1897 C   0  0  0  0  0  0  0  0  0  0  0  0
  -15.5838   18.3884  -31.1899 C   0  0  0  0  0  0  0  0  0  0  0  0
  -14.3465   19.0642  -37.8249 C   0  0  0  0  0  0  0  0  0  0  0  0
  -13.9229   18.6866  -39.0655 C   0  0  0  0  0  0  0  0  0  0  0  0
  -13.0032   17.6392  -39.2257 C   0  0  0  0  0  0  0  0  0  0  0  0
  -12.5678   17.2399  -40.3705 O   0  0  0  0  0  0  0  0  0  0  0  0
  -12.1170   16.8855  -41.5291 C   0  0  0  0  0  0  0  0  0  0  0  0
  -13.1425   16.3307  -42.4969 C   0  0  0  0  0  0  0  0  0  0  0  0
  -12.9087   16.3329  -43.7143 O   0  0  0  0  0  0  0  0  0  0  0  0
  -14.3217   15.8330  -41.9907 O   0  0  0  0  0  0  0  0  0  0  0  0
  1  2  1  0
  2  3  2  0
  3  4  1  0
  4  5  1  0
  5  6  1  0
  6  7  1  0
  7  8  1  0
  8  9  1  0
  9 10  1  0
 10 11  2  0
 11 12  1  0
 12 13  2  0
 13 14  1  0
 14 15  1  0
 14 16  1  0
 14 17  1  0
 13 18  1  0
 18 19  1  0
 18 20  2  0
  9 21  2  0
 21 22  1  0
 22 23  1  0
  4 24  2  0
 24 25  1  0
 25 26  2  0
 26 27  1  0
 27 28  1  0
 28 29  1  0
 29 30  2  0
 29 31  1  0
 26  2  1  0
 22  7  2  0
 20 10  1  0
M  END
$$$$
