
     RDKit          3D

 17 18  0  0  0  0  0  0  0  0999 V2000
    0.6232   11.6966  -40.1887 C   0  0  0  0  0  0  0  0  0  0  0  0
    1.1219   10.9059  -39.0060 C   0  0  0  0  0  0  0  0  0  0  0  0
    0.2673    9.8117  -38.6885 O   0  0  0  0  0  0  0  0  0  0  0  0
    0.1272    9.3990  -37.3798 C   0  0  0  0  0  0  0  0  0  0  0  0
    0.6543   10.1891  -36.3749 C   0  0  0  0  0  0  0  0  0  0  0  0
    0.2473   10.2286  -35.0571 C   0  0  0  0  0  0  0  0  0  0  0  0
   -0.5816    9.3599  -34.3696 C   0  0  0  0  0  0  0  0  0  0  0  0
   -1.1265    8.1740  -34.8167 C   0  0  0  0  0  0  0  0  0  0  0  0
   -1.7157    7.4535  -33.9899 O   0  0  0  0  0  0  0  0  0  0  0  0
   -1.1080    7.6591  -36.0958 C   0  0  0  0  0  0  0  0  0  0  0  0
   -1.6615    6.4603  -36.4974 C   0  0  0  0  0  0  0  0  0  0  0  0
   -2.3678    5.5433  -35.5815 C   0  0  0  0  0  0  0  0  0  0  0  0
   -1.4684    6.2545  -37.8111 N   0  0  0  0  0  0  0  0  0  0  0  0
   -1.9035    5.1142  -38.5878 C   0  0  0  0  0  0  0  0  0  0  0  0
   -0.7875    7.3150  -38.2826 C   0  0  0  0  0  0  0  0  0  0  0  0
   -0.3190    7.5861  -39.6753 C   0  0  0  0  0  0  0  0  0  0  0  0
   -0.5463    8.2065  -37.2478 C   0  0  0  0  0  0  0  0  0  0  0  0
  1  2  1  0
  2  3  1  0
  3  4  1  0
  4  5  2  0
  5  6  1  0
  6  7  2  0
  7  8  1  0
  8  9  2  0
  8 10  1  0
 10 11  2  0
 11 12  1  0
 11 13  1  0
 13 14  1  0
 13 15  1  0
 15 16  1  0
 15 17  2  0
 17  4  1  0
 17 10  1  0
M  END
$$$$
