
     RDKit          3D

 20 20  0  0  0  0  0  0  0  0999 V2000
  -14.2645   45.5077  -18.9676 C   0  0  0  0  0  0  0  0  0  0  0  0
  -12.7778   45.7082  -18.6569 C   0  0  0  0  0  0  0  0  0  0  0  0
  -12.2921   44.6909  -17.7222 N   0  0  0  0  0  0  0  0  0  0  0  0
  -12.2119   43.3562  -18.1943 C   0  0  0  0  0  0  0  0  0  0  0  0
  -11.7998   42.3158  -17.4011 C   0  0  0  0  0  0  0  0  0  0  0  0
  -11.7443   41.0374  -17.9585 C   0  0  0  0  0  0  0  0  0  0  0  0
  -12.0762   40.7605  -19.2504 C   0  0  0  0  0  0  0  0  0  0  0  0
  -12.4849   41.8137  -20.0281 C   0  0  0  0  0  0  0  0  0  0  0  0
  -12.5584   43.0953  -19.5300 C   0  0  0  0  0  0  0  0  0  0  0  0
  -11.9083   45.0784  -16.4179 C   0  0  0  0  0  0  0  0  0  0  0  0
  -11.6157   46.3871  -16.1087 C   0  0  0  0  0  0  0  0  0  0  0  0
  -11.2882   46.7547  -14.7809 C   0  0  0  0  0  0  0  0  0  0  0  0
  -11.0223   47.9699  -14.5313 N   0  0  0  0  0  0  0  0  0  0  0  0
  -10.6787   48.5319  -13.2996 C   0  0  0  0  0  0  0  0  0  0  0  0
  -11.2489   45.8663  -13.7898 N   0  0  0  0  0  0  0  0  0  0  0  0
  -10.9175   46.2667  -12.4750 C   0  0  0  0  0  0  0  0  0  0  0  0
  -11.5467   44.5787  -14.1471 C   0  0  0  0  0  0  0  0  0  0  0  0
  -11.5120   43.5545  -13.0648 C   0  0  0  0  0  0  0  0  0  0  0  0
  -11.8560   44.2279  -15.3972 N   0  0  0  0  0  0  0  0  0  0  0  0
  -12.1356   44.4500  -16.7679 Cl  0  0  0  0  0  0  0  0  0  0  0  0
  1  2  1  0
  2  3  1  0
  3  4  1  0
  4  5  2  0
  5  6  1  0
  6  7  2  0
  7  8  1  0
  8  9  2  0
  3 10  1  0
 10 11  2  0
 11 12  1  0
 12 13  2  0
 13 14  1  0
 12 15  1  0
 15 16  1  0
 15 17  1  0
 17 18  1  0
 17 19  2  0
  9  4  1  0
 19 10  1  0
M  END
$$$$
