
     RDKit          3D

 20 22  0  0  0  0  0  0  0  0999 V2000
  -11.7593   13.1264  -32.2910 C   0  0  0  0  0  0  0  0  0  0  0  0
  -13.0698   13.7332  -31.8855 C   0  0  0  0  0  0  0  0  0  0  0  0
  -13.9147   13.0751  -31.0444 C   0  0  0  0  0  0  0  0  0  0  0  0
  -15.1156   13.6518  -30.6842 C   0  0  0  0  0  0  0  0  0  0  0  0
  -15.5074   14.8928  -31.1484 C   0  0  0  0  0  0  0  0  0  0  0  0
  -17.0510   15.4993  -30.6110 S   0  0  0  0  0  6  0  0  0  0  0  0
  -16.9209   17.0022  -30.4720 O   0  0  0  0  0  0  0  0  0  0  0  0
  -17.2929   14.9694  -29.2265 O   0  0  0  0  0  0  0  0  0  0  0  0
  -18.3244   15.1178  -31.6771 N   0  0  0  0  0  0  0  0  0  0  0  0
  -19.0300   13.9740  -31.6525 C   0  0  0  0  0  0  0  0  0  0  0  0
  -18.9187   12.8492  -30.7950 N   0  0  0  0  0  0  0  0  0  0  0  0
  -19.9529   14.0448  -32.6542 N   0  0  0  0  0  0  0  0  0  0  0  0
  -19.8209   15.2210  -33.2937 C   0  0  0  0  0  0  0  0  0  0  0  0
  -20.4833   15.8009  -34.3618 C   0  0  0  0  0  0  0  0  0  0  0  0
  -20.1582   17.0459  -34.8468 C   0  0  0  0  0  0  0  0  0  0  0  0
  -19.1295   17.7174  -34.2256 C   0  0  0  0  0  0  0  0  0  0  0  0
  -18.4544   17.1603  -33.1594 C   0  0  0  0  0  0  0  0  0  0  0  0
  -18.7858   15.8988  -32.6699 C   0  0  0  0  0  0  0  0  0  0  0  0
  -14.6655   15.5538  -31.9894 C   0  0  0  0  0  0  0  0  0  0  0  0
  -13.4457   14.9743  -32.3587 C   0  0  0  0  0  0  0  0  0  0  0  0
  1  2  1  0
  2  3  2  0
  3  4  1  0
  4  5  2  0
  5  6  1  0
  6  7  2  0
  6  8  2  0
  6  9  1  0
  9 10  1  0
 10 11  1  0
 10 12  2  0
 12 13  1  0
 13 14  2  0
 14 15  1  0
 15 16  2  0
 16 17  1  0
 17 18  2  0
  5 19  1  0
 19 20  2  0
 20  2  1  0
 18  9  1  0
 18 13  1  0
M  END
$$$$
