
     RDKit          3D

 16 17  0  0  0  0  0  0  0  0999 V2000
  -21.1131   37.3318  -24.1876 O   0  0  0  0  0  0  0  0  0  0  0  0
  -20.1513   38.1538  -24.2704 C   0  0  0  0  0  0  0  0  0  0  0  0
  -20.2755   39.1239  -25.2231 O   0  0  0  0  0  0  0  0  0  0  0  0
  -19.0377   37.9760  -23.3510 C   0  0  0  0  0  0  0  0  0  0  0  0
  -18.1755   39.0501  -23.1477 C   0  0  0  0  0  0  0  0  0  0  0  0
  -17.0879   38.9324  -22.3359 C   0  0  0  0  0  0  0  0  0  0  0  0
  -16.7741   37.7649  -21.6743 C   0  0  0  0  0  0  0  0  0  0  0  0
  -17.6300   36.7088  -21.8787 C   0  0  0  0  0  0  0  0  0  0  0  0
  -18.7503   36.8095  -22.7060 C   0  0  0  0  0  0  0  0  0  0  0  0
  -19.5807   35.6719  -22.8628 N   0  0  0  0  0  0  0  0  0  0  0  0
  -19.1669   34.3443  -22.6215 C   0  0  0  0  0  0  0  0  0  0  0  0
  -20.0200   33.4915  -21.9663 C   0  0  0  0  0  0  0  0  0  0  0  0
  -19.6802   32.1920  -21.7236 C   0  0  0  0  0  0  0  0  0  0  0  0
  -18.4471   31.7452  -22.1545 C   0  0  0  0  0  0  0  0  0  0  0  0
  -17.5550   32.5500  -22.8129 C   0  0  0  0  0  0  0  0  0  0  0  0
  -17.9241   33.8584  -23.0449 C   0  0  0  0  0  0  0  0  0  0  0  0
  1  2  2  0
  2  3  1  0
  2  4  1  0
  4  5  2  0
  5  6  1  0
  6  7  2  0
  7  8  1  0
  8  9  2  0
  9 10  1  0
 10 11  1  0
 11 12  2  0
 12 13  1  0
 13 14  2  0
 14 15  1  0
 15 16  2  0
  9  4  1  0
 16 11  1  0
M  END
$$$$
