
     RDKit          3D

 18 20  0  0  0  0  0  0  0  0999 V2000
  -18.7130   17.1230  -18.8002 C   0  0  0  0  0  0  0  0  0  0  0  0
  -19.6841   17.8132  -17.9054 C   0  0  0  0  0  0  0  0  0  0  0  0
  -19.7628   17.5013  -16.6314 C   0  0  0  0  0  0  0  0  0  0  0  0
  -18.9548   16.4004  -16.0112 C   0  0  0  0  0  0  0  0  0  0  0  0
  -19.9431   15.4243  -15.4846 C   0  0  0  0  0  0  0  0  0  0  0  0
  -21.0357   15.8596  -14.8846 C   0  0  0  0  0  0  0  0  0  0  0  0
  -21.7071   14.9532  -13.9132 C   0  0  0  0  0  0  0  0  0  0  0  0
  -21.6135   17.1825  -15.1289 C   0  0  0  0  0  0  0  0  0  0  0  0
  -20.6578   18.2025  -15.6690 C   0  0  0  0  0  0  0  0  0  0  0  0
  -21.4624   19.2258  -16.3360 N   0  0  0  0  0  0  0  0  0  0  0  0
  -19.7861   18.7648  -14.6274 C   0  0  0  0  0  0  0  0  0  0  0  0
  -20.1157   19.9536  -13.9627 C   0  0  0  0  0  0  0  0  0  0  0  0
  -19.2783   20.4576  -12.9913 C   0  0  0  0  0  0  0  0  0  0  0  0
  -18.1067   19.8208  -12.6450 C   0  0  0  0  0  0  0  0  0  0  0  0
  -17.3308   20.2836  -11.7481 O   0  0  0  0  0  0  0  0  0  0  0  0
  -17.8033   18.6825  -13.2900 N   0  0  0  0  0  0  0  0  0  0  0  0
  -18.6144   18.1595  -14.2572 C   0  0  0  0  0  0  0  0  0  0  0  0
  -18.1434   16.9060  -14.8697 C   0  0  0  0  0  0  0  0  0  0  0  0
  1  2  1  0
  2  3  2  0
  3  4  1  0
  4  5  1  0
  5  6  2  0
  6  7  1  0
  6  8  1  0
  8  9  1  0
  9 10  1  0
  9 11  1  0
 11 12  1  0
 12 13  2  0
 13 14  1  0
 14 15  2  0
 14 16  1  0
 16 17  1  0
 17 18  1  0
  9  3  1  0
 17 11  2  0
 18  4  1  0
M  END
$$$$
