
     RDKit          3D

 26 28  0  0  0  0  0  0  0  0999 V2000
  -20.6662   17.9173  -34.1487 O   0  0  0  0  0  0  0  0  0  0  0  0
  -20.3591   17.2619  -33.1276 C   0  0  0  0  0  0  0  0  0  0  0  0
  -21.3352   17.1134  -32.1440 O   0  0  0  0  0  1  0  0  0  0  0  0
  -19.0397   16.6701  -32.9538 C   0  0  0  0  0  0  0  0  0  0  0  0
  -18.1203   16.8576  -33.9601 C   0  0  0  0  0  0  0  0  0  0  0  0
  -16.8445   16.2934  -33.7977 C   0  0  0  0  0  0  0  0  0  0  0  0
  -16.5180   15.5793  -32.6776 C   0  0  0  0  0  0  0  0  0  0  0  0
  -17.4661   15.4008  -31.6682 C   0  0  0  0  0  0  0  0  0  0  0  0
  -18.7450   15.9540  -31.8088 C   0  0  0  0  0  0  0  0  0  0  0  0
  -17.1306   14.7005  -30.5749 N   0  0  0  0  0  0  0  0  0  0  0  0
  -15.9362   14.1575  -30.3858 C   0  0  0  0  0  0  0  0  0  0  0  0
  -15.5547   13.4030  -29.2487 N   0  0  0  0  0  0  0  0  0  0  0  0
  -15.1604   14.0341  -28.0327 C   0  0  0  0  0  0  0  0  0  0  0  0
  -15.2543   15.3949  -27.8634 C   0  0  0  0  0  0  0  0  0  0  0  0
  -14.8858   16.0389  -26.6951 C   0  0  0  0  0  0  0  0  0  0  0  0
  -14.4024   15.2801  -25.6540 C   0  0  0  0  0  0  0  0  0  0  0  0
  -14.2907   13.8886  -25.7852 C   0  0  0  0  0  0  0  0  0  0  0  0
  -13.6616   12.9782  -24.4202 Cl  0  0  0  0  0  0  0  0  0  0  0  0
  -14.6681   13.2865  -26.9639 C   0  0  0  0  0  0  0  0  0  0  0  0
  -14.9875   14.3261  -31.3759 C   0  0  0  0  0  0  0  0  0  0  0  0
  -13.7262   13.7739  -31.2180 C   0  0  0  0  0  0  0  0  0  0  0  0
  -12.7574   13.9224  -32.1857 C   0  0  0  0  0  0  0  0  0  0  0  0
  -13.0671   14.6145  -33.2832 N   0  0  0  0  0  0  0  0  0  0  0  0
  -14.2813   15.1699  -33.4799 C   0  0  0  0  0  0  0  0  0  0  0  0
  -15.2624   15.0311  -32.5218 C   0  0  0  0  0  0  0  0  0  0  0  0
  -15.9079   15.1295  -30.5448 Na  0  0  0  0  0 15  0  0  0  0  0  0
  1  2  2  0
  2  3  1  0
  2  4  1  0
  4  5  2  0
  5  6  1  0
  6  7  2  0
  7  8  1  0
  8  9  2  0
  8 10  1  0
 10 11  2  0
 11 12  1  0
 12 13  1  0
 13 14  2  0
 14 15  1  0
 15 16  2  0
 16 17  1  0
 17 18  1  0
 17 19  2  0
 11 20  1  0
 20 21  2  0
 21 22  1  0
 22 23  2  0
 23 24  1  0
 24 25  2  0
  9  4  1  0
 19 13  1  0
 25 20  1  0
 25  7  1  0
M  CHG  2   3  -1  26   1
M  END
$$$$
