
     RDKit          3D

 20 22  0  0  0  0  0  0  0  0999 V2000
  -16.1705   34.2310  -21.9388 O   0  0  0  0  0  0  0  0  0  0  0  0
  -17.2086   34.9167  -22.0698 C   0  0  0  0  0  0  0  0  0  0  0  0
  -17.1368   36.3208  -22.1079 C   0  0  0  0  0  0  0  0  0  0  0  0
  -18.2759   37.0617  -22.2512 C   0  0  0  0  0  0  0  0  0  0  0  0
  -18.1956   38.5234  -22.2902 C   0  0  0  0  0  0  0  0  0  0  0  0
  -19.2827   39.2574  -22.7834 C   0  0  0  0  0  0  0  0  0  0  0  0
  -19.2078   40.6230  -22.8200 C   0  0  0  0  0  0  0  0  0  0  0  0
  -18.1027   41.3256  -22.3908 C   0  0  0  0  0  0  0  0  0  0  0  0
  -17.0304   40.6247  -21.9054 C   0  0  0  0  0  0  0  0  0  0  0  0
  -17.1111   39.2361  -21.8702 C   0  0  0  0  0  0  0  0  0  0  0  0
  -19.4311   36.4412  -22.3519 O   0  0  0  0  0  0  0  0  0  0  0  0
  -19.5855   35.1431  -22.3259 C   0  0  0  0  0  0  0  0  0  0  0  0
  -20.8370   34.5487  -22.4376 C   0  0  0  0  0  0  0  0  0  0  0  0
  -20.9944   33.1782  -22.4096 C   0  0  0  0  0  0  0  0  0  0  0  0
  -22.2428   32.5730  -22.5206 O   0  0  0  0  0  0  0  0  0  0  0  0
  -19.8639   32.4006  -22.2660 C   0  0  0  0  0  0  0  0  0  0  0  0
  -19.9681   31.0131  -22.2319 O   0  0  0  0  0  0  0  0  0  0  0  0
  -18.6036   32.9890  -22.1532 C   0  0  0  0  0  0  0  0  0  0  0  0
  -17.4599   32.2273  -22.0088 O   0  0  0  0  0  0  0  0  0  0  0  0
  -18.4618   34.3636  -22.1830 C   0  0  0  0  0  0  0  0  0  0  0  0
  1  2  2  0
  2  3  1  0
  3  4  2  0
  4  5  1  0
  5  6  2  0
  6  7  1  0
  7  8  2  0
  8  9  1  0
  9 10  2  0
  4 11  1  0
 11 12  1  0
 12 13  2  0
 13 14  1  0
 14 15  1  0
 14 16  2  0
 16 17  1  0
 16 18  1  0
 18 19  1  0
 18 20  2  0
 20  2  1  0
 10  5  1  0
 20 12  1  0
M  END
$$$$
