
     RDKit          3D

 25 28  0  0  0  0  0  0  0  0999 V2000
  -17.3562   19.0620  -47.2013 C   0  0  0  0  0  0  0  0  0  0  0  0
  -16.5617   19.4155  -46.0469 N   0  0  0  0  0  0  0  0  0  0  0  0
  -16.9225   18.6469  -44.8895 C   0  0  0  0  0  0  0  0  0  0  0  0
  -16.3403   19.3418  -43.6675 C   0  0  0  0  0  0  0  0  0  0  0  0
  -14.8592   19.5607  -43.8819 C   0  0  0  0  0  0  0  0  0  0  0  0
  -14.1044   18.9858  -42.7186 C   0  0  0  0  0  0  0  0  0  0  0  0
  -14.6643   18.6398  -41.5050 C   0  0  0  0  0  0  0  0  0  0  0  0
  -13.6837   18.1390  -40.6609 C   0  0  0  0  0  0  0  0  0  0  0  0
  -13.8522   17.6614  -39.2944 C   0  0  0  0  0  0  0  0  0  0  0  0
  -12.9909   18.0847  -38.3053 C   0  0  0  0  0  0  0  0  0  0  0  0
  -13.1239   17.6469  -36.9872 C   0  0  0  0  0  0  0  0  0  0  0  0
  -14.1121   16.7936  -36.6699 N   0  0  0  0  0  0  0  0  0  0  0  0
  -14.9668   16.3682  -37.6300 C   0  0  0  0  0  0  0  0  0  0  0  0
  -14.8571   16.7866  -38.9432 C   0  0  0  0  0  0  0  0  0  0  0  0
  -12.5159   18.1980  -41.4142 C   0  0  0  0  0  0  0  0  0  0  0  0
  -11.2248   17.7602  -40.8971 C   0  0  0  0  0  0  0  0  0  0  0  0
  -10.1289   18.5912  -41.0317 C   0  0  0  0  0  0  0  0  0  0  0  0
   -8.8711   18.2274  -40.5573 C   0  0  0  0  0  0  0  0  0  0  0  0
   -8.7155   17.0094  -39.9387 C   0  0  0  0  0  0  0  0  0  0  0  0
   -7.4763   16.6636  -39.4773 F   0  0  0  0  0  0  0  0  0  0  0  0
   -9.7968   16.1501  -39.7872 C   0  0  0  0  0  0  0  0  0  0  0  0
  -11.0248   16.5479  -40.2705 C   0  0  0  0  0  0  0  0  0  0  0  0
  -12.7920   18.7080  -42.6418 N   0  0  0  0  0  0  0  0  0  0  0  0
  -14.3598   18.8571  -45.1282 C   0  0  0  0  0  0  0  0  0  0  0  0
  -15.1488   19.4149  -46.2940 C   0  0  0  0  0  0  0  0  0  0  0  0
  1  2  1  0
  2  3  1  0
  3  4  1  0
  4  5  1  0
  5  6  1  0
  6  7  2  0
  7  8  1  0
  8  9  1  0
  9 10  2  0
 10 11  1  0
 11 12  2  0
 12 13  1  0
 13 14  2  0
  8 15  2  0
 15 16  1  0
 16 17  2  0
 17 18  1  0
 18 19  2  0
 19 20  1  0
 19 21  1  0
 21 22  2  0
 15 23  1  0
  5 24  1  0
 24 25  1  0
 25  2  1  0
 23  6  1  0
 14  9  1  0
 22 16  1  0
M  END
$$$$
