
     RDKit          3D

  7  6  0  0  0  0  0  0  0  0999 V2000
  -19.6544   32.4054  -22.4542 N   0  0  0  0  0  0  0  0  0  0  0  0
  -18.3617   33.0496  -22.3058 C   0  0  0  0  0  0  0  0  0  0  0  0
  -18.6069   34.4884  -21.9695 C   0  0  0  0  0  0  0  0  0  0  0  0
  -17.3723   35.2825  -21.7219 C   0  0  0  0  0  0  0  0  0  0  0  0
  -17.5866   36.7056  -21.4634 C   0  0  0  0  0  0  0  0  0  0  0  0
  -16.6167   37.3744  -21.0179 O   0  0  0  0  0  0  0  0  0  0  0  0
  -18.7713   37.4000  -21.6640 O   0  0  0  0  0  0  0  0  0  0  0  0
  1  2  1  0
  2  3  1  0
  3  4  1  0
  4  5  1  0
  5  6  2  0
  5  7  1  0
M  END
$$$$
