
     RDKit          3D

 20 20  0  0  0  0  0  0  0  0999 V2000
  -14.0039   16.9502  -38.9378 Cl  0  0  0  0  0  0  0  0  0  0  0  0
  -12.1793   16.1230  -44.0834 N   0  0  0  0  0  0  0  0  0  0  0  0
  -11.8013   17.2403  -43.2413 C   0  0  0  0  0  0  0  0  0  0  0  0
  -12.2891   17.0000  -41.8605 C   0  0  0  0  0  0  0  0  0  0  0  0
  -12.9258   15.9589  -41.5519 O   0  0  0  0  0  0  0  0  0  0  0  0
  -12.0510   17.9496  -40.8248 N   0  0  0  0  0  0  0  0  0  0  0  0
  -12.5055   17.7396  -39.5098 C   0  0  0  0  0  0  0  0  0  0  0  0
  -11.7594   17.0996  -38.5526 C   0  0  0  0  0  0  0  0  0  0  0  0
  -12.2401   16.9132  -37.2753 C   0  0  0  0  0  0  0  0  0  0  0  0
  -13.5215   17.3727  -36.8958 C   0  0  0  0  0  0  0  0  0  0  0  0
  -13.8977   17.1453  -35.6347 O   0  0  0  0  0  0  0  0  0  0  0  0
  -14.9296   17.3378  -34.7972 C   0  0  0  0  0  0  0  0  0  0  0  0
  -16.1734   16.6644  -35.2253 C   0  0  0  0  0  0  0  0  0  0  0  0
  -17.1797   17.2765  -35.9272 C   0  0  0  0  0  0  0  0  0  0  0  0
  -18.3341   16.6012  -36.3197 C   0  0  0  0  0  0  0  0  0  0  0  0
  -18.5080   15.2710  -36.0103 C   0  0  0  0  0  0  0  0  0  0  0  0
  -17.5127   14.6318  -35.3055 C   0  0  0  0  0  0  0  0  0  0  0  0
  -16.3790   15.3106  -34.9250 C   0  0  0  0  0  0  0  0  0  0  0  0
  -14.2534   18.0106  -37.8654 C   0  0  0  0  0  0  0  0  0  0  0  0
  -13.7491   18.1865  -39.1440 C   0  0  0  0  0  0  0  0  0  0  0  0
  2  3  1  0
  3  4  1  0
  4  5  2  0
  4  6  1  0
  6  7  1  0
  7  8  2  0
  8  9  1  0
  9 10  2  0
 10 11  1  0
 11 12  1  0
 12 13  1  0
 13 14  2  0
 14 15  1  0
 15 16  2  0
 16 17  1  0
 17 18  2  0
 10 19  1  0
 19 20  2  0
 20  7  1  0
 18 13  1  0
M  END
$$$$
