
     RDKit          3D

 21 24  0  0  0  0  0  0  0  0999 V2000
  -17.0153   36.0185  -20.5145 O   0  0  0  0  0  0  0  0  0  0  0  0
  -17.9625   36.0960  -21.3312 C   0  0  0  0  0  0  0  0  0  0  0  0
  -18.7984   34.9296  -21.5874 C   0  0  0  0  0  0  0  0  0  0  0  0
  -18.5840   33.7214  -20.9543 C   0  0  0  0  0  0  0  0  0  0  0  0
  -19.3643   32.6074  -21.1840 C   0  0  0  0  0  0  0  0  0  0  0  0
  -20.3973   32.7203  -22.0854 C   0  0  0  0  0  0  0  0  0  0  0  0
  -20.6214   33.9394  -22.7305 C   0  0  0  0  0  0  0  0  0  0  0  0
  -19.8360   35.0448  -22.4934 C   0  0  0  0  0  0  0  0  0  0  0  0
  -20.0722   36.3181  -23.1691 C   0  0  0  0  0  0  0  0  0  0  0  0
  -21.0090   36.4199  -23.9864 O   0  0  0  0  0  0  0  0  0  0  0  0
  -19.2366   37.4989  -22.9187 C   0  0  0  0  0  0  0  0  0  0  0  0
  -19.2185   38.7248  -23.3650 O   0  0  0  0  0  0  0  0  0  0  0  0
  -18.2372   39.4179  -22.8099 C   0  0  0  0  0  0  0  0  0  0  0  0
  -17.8925   40.8140  -23.0487 C   0  0  0  0  0  0  0  0  0  0  0  0
  -16.8924   41.3966  -22.3023 C   0  0  0  0  0  0  0  0  0  0  0  0
  -16.5480   42.7183  -22.5106 C   0  0  0  0  0  0  0  0  0  0  0  0
  -17.1882   43.5030  -23.4686 C   0  0  0  0  0  0  0  0  0  0  0  0
  -18.1886   42.9158  -24.2134 C   0  0  0  0  0  0  0  0  0  0  0  0
  -18.5189   41.5829  -23.9866 C   0  0  0  0  0  0  0  0  0  0  0  0
  -17.6085   38.5772  -21.9708 N   0  0  0  0  0  0  0  0  0  0  0  0
  -18.2048   37.3726  -22.0132 C   0  0  0  0  0  0  0  0  0  0  0  0
  1  2  2  0
  2  3  1  0
  3  4  2  0
  4  5  1  0
  5  6  2  0
  6  7  1  0
  7  8  2  0
  8  9  1  0
  9 10  2  0
  9 11  1  0
 11 12  1  0
 12 13  1  0
 13 14  1  0
 14 15  2  0
 15 16  1  0
 16 17  2  0
 17 18  1  0
 18 19  2  0
 13 20  2  0
 20 21  1  0
 21  2  1  0
  8  3  1  0
 21 11  2  0
 19 14  1  0
M  END
$$$$
