
     RDKit          3D

 15 14  0  0  0  0  0  0  0  0999 V2000
  -16.0781   14.3240  -30.3802 Cl  0  0  0  0  0  0  0  0  0  0  0  0
  -15.9235   14.1325  -28.0295 N   0  0  0  0  0  0  0  0  0  0  0  0
  -16.5974   15.2418  -28.6219 C   0  0  0  0  0  0  0  0  0  0  0  0
  -17.7866   14.8991  -29.4260 C   0  0  0  0  0  0  0  0  0  0  0  0
  -17.6002   14.0442  -30.6372 C   0  0  0  0  0  0  0  0  0  0  0  0
  -16.7387   14.6591  -31.6128 N   0  0  0  0  0  0  0  0  0  0  0  0
  -15.3887   14.4452  -31.8350 C   0  0  0  0  0  0  0  0  0  0  0  0
  -14.6966   13.4992  -31.0659 C   0  0  0  0  0  0  0  0  0  0  0  0
  -13.3527   13.2302  -31.2276 C   0  0  0  0  0  0  0  0  0  0  0  0
  -12.6569   13.9203  -32.1887 C   0  0  0  0  0  0  0  0  0  0  0  0
  -13.2892   14.8517  -32.9648 C   0  0  0  0  0  0  0  0  0  0  0  0
  -14.6653   15.1043  -32.7749 C   0  0  0  0  0  0  0  0  0  0  0  0
  -15.2428   16.0787  -33.6129 N   0  0  0  0  0  4  0  0  0  0  0  0
  -16.3791   16.0430  -34.0565 O   0  0  0  0  0  0  0  0  0  0  0  0
  -14.4203   17.1471  -33.9840 O   0  0  0  0  0  1  0  0  0  0  0  0
  2  3  1  0
  3  4  1  0
  4  5  1  0
  5  6  1  0
  6  7  1  0
  7  8  2  0
  8  9  1  0
  9 10  2  0
 10 11  1  0
 11 12  2  0
 12 13  1  0
 13 14  2  0
 13 15  1  0
 12  7  1  0
M  CHG  2  13   1  15  -1
M  END
$$$$
