
     RDKit          3D

 20 22  0  0  0  0  0  0  0  0999 V2000
  -22.6758   15.6756  -32.5984 O   0  0  0  0  0  0  0  0  0  0  0  0
  -21.8241   15.5134  -33.5093 C   0  0  0  0  0  0  0  0  0  0  0  0
  -22.2550   15.3627  -34.8015 O   0  0  0  0  0  0  0  0  0  0  0  0
  -20.3859   15.4851  -33.1976 C   0  0  0  0  0  0  0  0  0  0  0  0
  -19.4938   16.0875  -34.0595 C   0  0  0  0  0  0  0  0  0  0  0  0
  -18.1278   16.0585  -33.7599 C   0  0  0  0  0  0  0  0  0  0  0  0
  -17.6443   15.4479  -32.6319 C   0  0  0  0  0  0  0  0  0  0  0  0
  -16.4249   15.2627  -32.0932 N   0  0  0  0  0  0  0  0  0  0  0  0
  -16.5424   14.5788  -30.9507 C   0  0  0  0  0  0  0  0  0  0  0  0
  -15.5189   14.1400  -30.0163 C   0  0  0  0  0  0  0  0  0  0  0  0
  -14.1704   14.2477  -30.2858 C   0  0  0  0  0  0  0  0  0  0  0  0
  -13.2099   13.8228  -29.3801 C   0  0  0  0  0  0  0  0  0  0  0  0
  -11.5020   13.9618  -29.7272 Cl  0  0  0  0  0  0  0  0  0  0  0  0
  -13.5734   13.2741  -28.1705 C   0  0  0  0  0  0  0  0  0  0  0  0
  -14.9105   13.1590  -27.8849 C   0  0  0  0  0  0  0  0  0  0  0  0
  -15.4859   12.4768  -26.3778 Cl  0  0  0  0  0  0  0  0  0  0  0  0
  -15.8519   13.5860  -28.7957 C   0  0  0  0  0  0  0  0  0  0  0  0
  -17.8208   14.3498  -30.7953 O   0  0  0  0  0  0  0  0  0  0  0  0
  -18.5383   14.8464  -31.7719 C   0  0  0  0  0  0  0  0  0  0  0  0
  -19.8917   14.8806  -32.0782 C   0  0  0  0  0  0  0  0  0  0  0  0
  1  2  2  0
  2  3  1  0
  2  4  1  0
  4  5  2  0
  5  6  1  0
  6  7  2  0
  7  8  1  0
  8  9  2  0
  9 10  1  0
 10 11  2  0
 11 12  1  0
 12 13  1  0
 12 14  2  0
 14 15  1  0
 15 16  1  0
 15 17  2  0
  9 18  1  0
 18 19  1  0
 19 20  2  0
 20  4  1  0
 19  7  1  0
 17 10  1  0
M  END
$$$$
