
     RDKit          3D

 20 22  0  0  0  0  0  0  0  0999 V2000
  -17.7301   38.1195  -20.6647 O   0  0  0  0  0  0  0  0  0  0  0  0
  -18.1985   37.7070  -21.7332 C   0  0  0  0  0  0  0  0  0  0  0  0
  -18.8794   38.5241  -22.6453 C   0  0  0  0  0  0  0  0  0  0  0  0
  -19.0056   39.8581  -22.2794 O   0  0  0  0  0  0  0  0  0  0  0  0
  -19.3878   38.0500  -23.8169 C   0  0  0  0  0  0  0  0  0  0  0  0
  -20.1010   38.8207  -24.8110 C   0  0  0  0  0  0  0  0  0  0  0  0
  -21.1229   38.3467  -25.5791 C   0  0  0  0  0  0  0  0  0  0  0  0
  -21.7838   39.1480  -26.5365 C   0  0  0  0  0  0  0  0  0  0  0  0
  -21.4258   40.4552  -26.7418 C   0  0  0  0  0  0  0  0  0  0  0  0
  -20.3980   40.9466  -25.9753 C   0  0  0  0  0  0  0  0  0  0  0  0
  -19.7611   40.1611  -25.0472 C   0  0  0  0  0  0  0  0  0  0  0  0
  -19.2006   36.7653  -24.0459 O   0  0  0  0  0  0  0  0  0  0  0  0
  -18.5807   35.9351  -23.2544 C   0  0  0  0  0  0  0  0  0  0  0  0
  -18.4386   34.5830  -23.5985 C   0  0  0  0  0  0  0  0  0  0  0  0
  -17.7861   33.7033  -22.7682 C   0  0  0  0  0  0  0  0  0  0  0  0
  -17.6507   32.3661  -23.1184 O   0  0  0  0  0  0  0  0  0  0  0  0
  -17.2735   34.1811  -21.5870 C   0  0  0  0  0  0  0  0  0  0  0  0
  -17.3943   35.5014  -21.2170 C   0  0  0  0  0  0  0  0  0  0  0  0
  -16.8938   36.0234  -20.0388 O   0  0  0  0  0  0  0  0  0  0  0  0
  -18.0560   36.3846  -22.0632 C   0  0  0  0  0  0  0  0  0  0  0  0
  1  2  2  0
  2  3  1  0
  3  4  1  0
  3  5  2  0
  5  6  1  0
  6  7  2  0
  7  8  1  0
  8  9  2  0
  9 10  1  0
 10 11  2  0
  5 12  1  0
 12 13  1  0
 13 14  2  0
 14 15  1  0
 15 16  1  0
 15 17  2  0
 17 18  1  0
 18 19  1  0
 18 20  2  0
 20  2  1  0
 11  6  1  0
 20 13  1  0
M  END
$$$$
