
     RDKit          3D

 41 44  0  0  0  0  0  0  0  0999 V2000
  -23.9541   27.2673  -33.5812 C   0  0  0  0  0  0  0  0  0  0  0  0
  -24.8567   26.1144  -34.0282 C   0  0  0  0  0  0  0  0  0  0  0  0
  -26.1036   26.1626  -33.3566 N   0  0  0  0  0  0  0  0  0  0  0  0
  -26.3367   25.0789  -32.4975 C   0  0  0  0  0  0  0  0  0  0  0  0
  -27.4853   25.4890  -31.5336 C   0  0  0  0  0  0  0  0  0  0  0  0
  -28.2719   24.2602  -31.1609 C   0  0  0  0  0  0  0  0  0  0  0  0
  -27.8533   23.7999  -29.9085 O   0  0  0  0  0  0  0  0  0  0  0  0
  -28.3883   22.6253  -29.3764 C   0  0  0  0  0  0  0  0  0  0  0  0
  -27.5219   21.7155  -28.8149 C   0  0  0  0  0  0  0  0  0  0  0  0
  -27.9801   20.5111  -28.2673 C   0  0  0  0  0  0  0  0  0  0  0  0
  -29.3229   20.1978  -28.2767 C   0  0  0  0  0  0  0  0  0  0  0  0
  -29.7850   19.0024  -27.7368 C   0  0  0  0  0  0  0  0  0  0  0  0
  -28.9378   18.0598  -27.1231 N   0  0  0  0  0  0  0  0  0  0  0  0
  -29.5456   16.9349  -26.5140 C   0  0  0  0  0  0  0  0  0  0  0  0
  -30.5355   16.0959  -27.0005 C   0  0  0  0  0  0  0  0  0  0  0  0
  -30.8029   15.1554  -26.0153 C   0  0  0  0  0  0  0  0  0  0  0  0
  -31.7348   14.0271  -25.9963 C   0  0  0  0  0  0  0  0  0  0  0  0
  -32.8409   14.3446  -25.0095 C   0  0  0  0  0  0  0  0  0  0  0  0
  -32.7542   15.4248  -24.3649 O   0  0  0  0  0  0  0  0  0  0  0  0
  -33.9307   13.4817  -24.8097 N   0  0  0  0  0  0  0  0  0  0  0  0
  -35.0434   13.7266  -23.9737 C   0  0  0  0  0  0  0  0  0  0  0  0
  -35.9584   12.6758  -23.7992 C   0  0  0  0  0  0  0  0  0  0  0  0
  -37.0872   12.8162  -23.0267 C   0  0  0  0  0  0  0  0  0  0  0  0
  -37.3812   14.0252  -22.3718 C   0  0  0  0  0  0  0  0  0  0  0  0
  -36.4884   15.0499  -22.5431 C   0  0  0  0  0  0  0  0  0  0  0  0
  -36.7191   16.2530  -21.9293 F   0  0  0  0  0  0  0  0  0  0  0  0
  -35.3469   14.8884  -23.3311 C   0  0  0  0  0  0  0  0  0  0  0  0
  -29.9810   15.4430  -24.9833 N   0  0  0  0  0  0  0  0  0  0  0  0
  -29.2433   16.4906  -25.2790 N   0  0  0  0  0  0  0  0  0  0  0  0
  -31.1356   18.7879  -27.8004 N   0  0  0  0  0  0  0  0  0  0  0  0
  -31.9783   19.6674  -28.3472 C   0  0  0  0  0  0  0  0  0  0  0  0
  -31.4962   20.8296  -28.8682 N   0  0  0  0  0  0  0  0  0  0  0  0
  -30.1827   21.1052  -28.8385 C   0  0  0  0  0  0  0  0  0  0  0  0
  -29.7211   22.2985  -29.3798 C   0  0  0  0  0  0  0  0  0  0  0  0
  -27.1164   26.7745  -34.0833 C   0  0  0  0  0  0  0  0  0  0  0  0
  -27.0789   28.2894  -34.1737 C   0  0  0  0  0  0  0  0  0  0  0  0
  -27.7609   28.6948  -35.3378 O   0  0  0  0  0  0  0  0  0  0  0  0
  -27.0253   28.1293  -36.7488 P   0  0  0  0  0  5  0  0  0  0  0  0
  -27.6895   28.6470  -37.9897 O   0  0  0  0  0  0  0  0  0  0  0  0
  -25.4142   28.6158  -36.7476 O   0  0  0  0  0  0  0  0  0  0  0  0
  -27.0595   26.4182  -36.7144 O   0  0  0  0  0  0  0  0  0  0  0  0
  1  2  1  0
  2  3  1  0
  3  4  1  0
  4  5  1  0
  5  6  1  0
  6  7  1  0
  7  8  1  0
  8  9  2  0
  9 10  1  0
 10 11  2  0
 11 12  1  0
 12 13  1  0
 13 14  1  0
 14 15  1  0
 15 16  2  0
 16 17  1  0
 17 18  1  0
 18 19  2  0
 18 20  1  0
 20 21  1  0
 21 22  2  0
 22 23  1  0
 23 24  2  0
 24 25  1  0
 25 26  1  0
 25 27  2  0
 16 28  1  0
 28 29  1  0
 12 30  2  0
 30 31  1  0
 31 32  2  0
 32 33  1  0
 33 34  2  0
  3 35  1  0
 35 36  1  0
 36 37  1  0
 37 38  1  0
 38 39  2  0
 38 40  1  0
 38 41  1  0
 34  8  1  0
 33 11  1  0
 29 14  2  0
 27 21  1  0
M  END
$$$$
