
     RDKit          3D

 24 26  0  0  0  0  0  0  0  0999 V2000
  -24.7192   14.7986  -32.3009 C   0  0  0  0  0  0  0  0  0  0  0  0
  -25.3726   15.8676  -33.1060 C   0  0  0  0  0  0  0  0  0  0  0  0
  -24.8654   16.0323  -34.3899 O   0  0  0  0  0  0  0  0  0  0  0  0
  -23.9465   17.0340  -34.6585 C   0  0  0  0  0  0  0  0  0  0  0  0
  -24.4080   18.1902  -34.8372 O   0  0  0  0  0  0  0  0  0  0  0  0
  -22.4802   16.7550  -34.7322 C   0  0  0  0  0  0  0  0  0  0  0  0
  -21.7182   17.8009  -35.4670 C   0  0  0  0  0  0  0  0  0  0  0  0
  -21.4188   19.0525  -34.7006 C   0  0  0  0  0  0  0  0  0  0  0  0
  -21.3461   18.7584  -33.2127 C   0  0  0  0  0  0  0  0  0  0  0  0
  -20.9115   17.4122  -33.0919 N   0  0  0  0  0  0  0  0  0  0  0  0
  -19.5995   16.9764  -32.7462 C   0  0  0  0  0  0  0  0  0  0  0  0
  -19.4215   15.7039  -32.6574 O   0  0  0  0  0  0  0  0  0  0  0  0
  -18.5292   17.8918  -32.5079 C   0  0  0  0  0  0  0  0  0  0  0  0
  -18.8313   19.1664  -32.6517 O   0  0  0  0  0  0  0  0  0  0  0  0
  -17.1591   17.7097  -32.1426 C   0  0  0  0  0  0  0  0  0  0  0  0
  -16.4542   18.4705  -31.1927 C   0  0  0  0  0  0  0  0  0  0  0  0
  -15.1710   18.1245  -31.1970 N   0  0  0  0  0  0  0  0  0  0  0  0
  -14.9516   17.1616  -32.0992 C   0  0  0  0  0  0  0  0  0  0  0  0
  -13.7948   16.4880  -32.4251 C   0  0  0  0  0  0  0  0  0  0  0  0
  -13.8204   15.4986  -33.3702 C   0  0  0  0  0  0  0  0  0  0  0  0
  -15.0108   15.1998  -33.9735 C   0  0  0  0  0  0  0  0  0  0  0  0
  -16.1794   15.8921  -33.6343 C   0  0  0  0  0  0  0  0  0  0  0  0
  -16.1994   16.9012  -32.6894 C   0  0  0  0  0  0  0  0  0  0  0  0
  -21.9214   16.4074  -33.3696 C   0  0  0  0  0  0  0  0  0  0  0  0
  1  2  1  0
  2  3  1  0
  3  4  1  0
  4  5  2  0
  4  6  1  0
  6  7  1  0
  7  8  1  0
  8  9  1  0
  9 10  1  0
 10 11  1  0
 11 12  2  0
 11 13  1  0
 13 14  2  0
 13 15  1  0
 15 16  2  0
 16 17  1  0
 17 18  1  0
 18 19  2  0
 19 20  1  0
 20 21  2  0
 21 22  1  0
 22 23  2  0
 10 24  1  0
 24  6  1  0
 23 15  1  0
 23 18  1  0
M  END
$$$$
