
     RDKit          3D

 27 30  0  0  0  0  0  0  0  0999 V2000
  -19.2077   37.6992  -27.9801 C   0  0  0  0  0  0  0  0  0  0  0  0
  -20.1166   38.1430  -26.8784 C   0  0  0  0  0  0  0  0  0  0  0  0
  -19.3834   38.7881  -25.7320 C   0  0  0  0  0  0  0  0  0  0  0  0
  -20.2915   39.2127  -24.6263 C   0  0  0  0  0  0  0  0  0  0  0  0
  -19.5838   39.7993  -23.5074 N   0  0  0  0  0  0  0  0  0  0  0  0
  -19.1500   39.0824  -22.4255 C   0  0  0  0  0  0  0  0  0  0  0  0
  -19.3555   37.6826  -22.2658 N   0  0  0  0  0  0  0  0  0  0  0  0
  -18.3771   36.8073  -21.7411 C   0  0  0  0  0  0  0  0  0  0  0  0
  -17.3214   37.2958  -21.2766 O   0  0  0  0  0  0  0  0  0  0  0  0
  -18.5590   35.3559  -21.7216 C   0  0  0  0  0  0  0  0  0  0  0  0
  -19.6356   34.5770  -21.9005 C   0  0  0  0  0  0  0  0  0  0  0  0
  -19.4913   33.2466  -21.7951 C   0  0  0  0  0  0  0  0  0  0  0  0
  -18.2774   32.7216  -21.5143 C   0  0  0  0  0  0  0  0  0  0  0  0
  -17.2006   34.2048  -21.3764 S   0  0  0  0  0  0  0  0  0  0  0  0
  -18.5347   40.0057  -21.6124 C   0  0  0  0  0  0  0  0  0  0  0  0
  -17.9293   39.7094  -20.3551 C   0  0  0  0  0  0  0  0  0  0  0  0
  -17.4458   39.4845  -19.3242 N   0  0  0  0  0  0  0  0  0  0  0  0
  -18.5874   41.2770  -22.1837 C   0  0  0  0  0  0  0  0  0  0  0  0
  -18.1405   42.4817  -21.7876 N   0  0  0  0  0  0  0  0  0  0  0  0
  -18.3575   43.5426  -22.5853 C   0  0  0  0  0  0  0  0  0  0  0  0
  -17.9270   44.8053  -22.2407 C   0  0  0  0  0  0  0  0  0  0  0  0
  -18.1480   45.8874  -23.0535 C   0  0  0  0  0  0  0  0  0  0  0  0
  -18.8126   45.7634  -24.2553 C   0  0  0  0  0  0  0  0  0  0  0  0
  -19.2477   44.5055  -24.6103 C   0  0  0  0  0  0  0  0  0  0  0  0
  -19.0247   43.3939  -23.7837 C   0  0  0  0  0  0  0  0  0  0  0  0
  -19.4686   42.1769  -24.1698 N   0  0  0  0  0  0  0  0  0  0  0  0
  -19.2560   41.0983  -23.3738 C   0  0  0  0  0  0  0  0  0  0  0  0
  1  2  1  0
  2  3  1  0
  3  4  1  0
  4  5  1  0
  5  6  1  0
  6  7  1  0
  7  8  1  0
  8  9  2  0
  8 10  1  0
 10 11  2  0
 11 12  1  0
 12 13  2  0
 13 14  1  0
  6 15  2  0
 15 16  1  0
 16 17  3  0
 15 18  1  0
 18 19  2  0
 19 20  1  0
 20 21  2  0
 21 22  1  0
 22 23  2  0
 23 24  1  0
 24 25  2  0
 25 26  1  0
 26 27  2  0
 27  5  1  0
 14 10  1  0
 27 18  1  0
 25 20  1  0
M  END
$$$$
