
     RDKit          3D

 22 23  0  0  0  0  0  0  0  0999 V2000
  -14.9431   15.3873  -34.0405 C   0  0  0  0  0  0  0  0  0  0  0  0
  -14.1295   16.0669  -35.1286 C   0  0  0  0  0  0  0  0  0  0  0  0
  -15.0468   17.0254  -35.8346 C   0  0  0  0  0  0  0  0  0  0  0  0
  -14.4060   17.5525  -37.0934 C   0  0  0  0  0  0  0  0  0  0  0  0
  -13.5049   18.3906  -36.9732 O   0  0  0  0  0  0  0  0  0  0  0  0
  -14.8122   17.1132  -38.3677 N   0  0  0  0  0  0  0  0  0  0  0  0
  -14.8064   17.8426  -39.5739 C   0  0  0  0  0  0  0  0  0  0  0  0
  -13.5439   18.0856  -40.1345 C   0  0  0  0  0  0  0  0  0  0  0  0
  -13.4601   18.7892  -41.3025 C   0  0  0  0  0  0  0  0  0  0  0  0
  -14.5851   19.2535  -41.9209 C   0  0  0  0  0  0  0  0  0  0  0  0
  -15.8481   19.0404  -41.4071 C   0  0  0  0  0  0  0  0  0  0  0  0
  -17.0351   19.5246  -42.0189 N   0  0  0  0  0  0  0  0  0  0  0  0
  -17.1355   20.7860  -42.6293 C   0  0  0  0  0  0  0  0  0  0  0  0
  -16.0351   21.4112  -42.7982 O   0  0  0  0  0  0  0  0  0  0  0  0
  -18.3438   21.4388  -43.0820 C   0  0  0  0  0  0  0  0  0  0  0  0
  -19.2173   20.7153  -43.9027 C   0  0  0  0  0  0  0  0  0  0  0  0
  -20.3905   21.2453  -44.3868 C   0  0  0  0  0  0  0  0  0  0  0  0
  -20.7672   22.5362  -44.0814 C   0  0  0  0  0  0  0  0  0  0  0  0
  -19.9188   23.2634  -43.2740 C   0  0  0  0  0  0  0  0  0  0  0  0
  -18.7293   22.7206  -42.7855 C   0  0  0  0  0  0  0  0  0  0  0  0
  -17.5639   23.7514  -41.6684 Br  0  0  0  0  0  0  0  0  0  0  0  0
  -15.9171   18.3278  -40.2277 C   0  0  0  0  0  0  0  0  0  0  0  0
  1  2  1  0
  2  3  1  0
  3  4  1  0
  4  5  2  0
  4  6  1  0
  6  7  1  0
  7  8  2  0
  8  9  1  0
  9 10  2  0
 10 11  1  0
 11 12  1  0
 12 13  1  0
 13 14  2  0
 13 15  1  0
 15 16  2  0
 16 17  1  0
 17 18  2  0
 18 19  1  0
 19 20  2  0
 20 21  1  0
 11 22  2  0
 22  7  1  0
 20 15  1  0
M  END
$$$$
