
     RDKit          3D

 27 29  0  0  0  0  0  0  0  0999 V2000
    0.4864   25.0444  -21.3526 C   0  0  0  0  0  0  0  0  0  0  0  0
    1.6534   24.7973  -20.6408 C   0  0  0  0  0  0  0  0  0  0  0  0
    2.6959   24.5660  -19.9812 C   0  0  0  0  0  0  0  0  0  0  0  0
    3.8999   24.2963  -19.2467 C   0  0  0  0  0  0  0  0  0  0  0  0
    4.9619   24.9281  -19.2935 O   0  0  0  0  0  0  0  0  0  0  0  0
    3.9424   23.1571  -18.3306 N   0  0  0  0  0  0  0  0  0  0  0  0
    4.3579   21.8948  -18.7601 C   0  0  1  0  0  0  0  0  0  0  0  0
    5.4499   21.1115  -18.1905 C   0  0  0  0  0  0  0  0  0  0  0  0
    5.1431   20.2189  -17.0344 C   0  0  0  0  0  0  0  0  0  0  0  0
    3.7890   19.6408  -16.9943 C   0  0  0  0  0  0  0  0  0  0  0  0
    3.0171   19.8370  -18.1521 N   0  0  0  0  0  0  0  0  0  0  0  0
    1.9674   18.9868  -18.6659 C   0  0  0  0  0  0  0  0  0  0  0  0
    1.2852   18.1815  -17.7415 C   0  0  0  0  0  0  0  0  0  0  0  0
    1.7227   18.2370  -16.4548 F   0  0  0  0  0  0  0  0  0  0  0  0
    0.2125   17.4198  -18.0967 C   0  0  0  0  0  0  0  0  0  0  0  0
   -0.2738   17.3975  -19.3965 C   0  0  0  0  0  0  0  0  0  0  0  0
   -1.4512   16.6331  -19.7200 C   0  0  0  0  0  0  0  0  0  0  0  0
   -2.4078   15.9437  -18.9945 N   0  0  0  0  0  0  0  0  0  0  0  0
   -1.6904   16.5572  -21.0378 O   0  0  0  0  0  0  0  0  0  0  0  0
    0.4098   18.1970  -20.3119 C   0  0  0  0  0  0  0  0  0  0  0  0
    0.1695   18.3766  -21.6372 N   0  0  0  0  0  0  0  0  0  0  0  0
    1.0937   19.2495  -22.1269 C   0  0  0  0  0  0  0  0  0  0  0  0
    1.1611   19.6286  -23.5542 C   0  0  0  0  0  0  0  0  0  0  0  0
    1.9080   19.6071  -21.0978 C   0  0  0  0  0  0  0  0  0  0  0  0
    3.0518   20.5562  -21.2431 C   0  0  0  0  0  0  0  0  0  0  0  0
    1.5170   18.9810  -19.9557 C   0  0  0  0  0  0  0  0  0  0  0  0
    3.1316   21.0434  -18.9308 C   0  0  0  0  0  0  0  0  0  0  0  0
  1  2  1  0
  2  3  3  0
  3  4  1  0
  4  5  2  0
  4  6  1  0
  7  6  1  1
  7  8  1  0
  8  9  1  0
  9 10  1  0
 10 11  1  0
 11 12  1  0
 12 13  2  0
 13 14  1  0
 13 15  1  0
 15 16  2  0
 16 17  1  0
 17 18  1  0
 17 19  2  0
 16 20  1  0
 20 21  1  0
 21 22  1  0
 22 23  1  0
 22 24  2  0
 24 25  1  0
 24 26  1  0
 11 27  1  0
 27  7  1  0
 26 12  1  0
 26 20  2  0
M  END
$$$$
