
     RDKit          3D

 29 33  0  0  0  0  0  0  0  0999 V2000
  -17.5064   40.8280  -19.5174 C   0  0  0  0  0  0  0  0  0  0  0  0
  -17.9735   39.6933  -20.3559 C   0  0  0  0  0  0  0  0  0  0  0  0
  -17.1857   38.9848  -20.9444 O   0  0  0  0  0  0  0  0  0  0  0  0
  -19.7155   39.3686  -20.4988 S   0  0  0  0  0  0  0  0  0  0  0  0
  -20.3088   39.9979  -22.0806 C   0  0  0  0  0  0  0  0  0  0  0  0
  -20.0617   38.8992  -23.0962 C   0  0  0  0  0  0  0  0  0  0  0  0
  -20.4249   39.2617  -24.4645 C   0  0  0  0  0  0  0  0  0  0  0  0
  -20.6618   38.3797  -25.3846 C   0  0  0  0  0  0  0  0  0  0  0  0
  -21.0251   38.7376  -26.7583 C   0  0  0  0  0  0  0  0  0  0  0  0
  -21.4577   37.8712  -27.5639 O   0  0  0  0  0  0  0  0  0  0  0  0
  -20.8889   40.1141  -27.2141 C   0  0  0  0  0  0  0  0  0  0  0  0
  -20.1105   40.9370  -26.2471 C   0  0  0  0  0  0  0  0  0  0  0  0
  -20.5081   40.7247  -24.7999 C   0  0  0  0  0  0  0  0  0  0  0  0
  -21.8563   41.3102  -24.5836 C   0  0  0  0  0  0  0  0  0  0  0  0
  -19.4114   41.3182  -23.9388 C   0  0  0  0  0  0  0  0  0  0  0  0
  -19.0124   42.7021  -24.3228 C   0  0  0  0  0  0  0  0  0  0  0  0
  -17.7218   43.0549  -23.6135 C   0  0  0  0  0  0  0  0  0  0  0  0
  -17.4884   42.2926  -22.3506 C   0  0  0  0  0  0  0  0  0  0  0  0
  -16.6992   41.0410  -22.4803 C   0  0  0  0  0  0  0  0  0  0  0  0
  -18.8704   42.0779  -21.7076 C   0  0  0  0  0  0  0  0  0  0  0  0
  -18.4500   41.6945  -20.3471 C   0  0  0  0  0  0  0  0  0  0  0  0
  -17.6156   42.9506  -20.0001 C   0  0  0  0  0  0  0  0  0  0  0  0
  -16.8365   43.1214  -21.2666 C   0  0  0  0  0  0  0  0  0  0  0  0
  -16.6116   44.5598  -21.6393 C   0  0  0  0  0  0  0  0  0  0  0  0
  -15.6121   44.9657  -20.5458 C   0  0  0  0  0  0  0  0  0  0  0  0
  -14.9956   43.6785  -20.1291 C   0  0  0  0  0  0  0  0  0  0  0  0
  -14.1813   43.5608  -19.1755 O   0  0  0  0  0  0  0  0  0  0  0  0
  -15.5056   42.7181  -20.9899 O   0  0  0  0  0  0  0  0  0  0  0  0
  -19.8444   41.3285  -22.4697 C   0  0  0  0  0  0  0  0  0  0  0  0
  1  2  1  0
  2  3  2  0
  2  4  1  0
  4  5  1  0
  5  6  1  0
  6  7  1  0
  7  8  2  0
  8  9  1  0
  9 10  2  0
  9 11  1  0
 11 12  1  0
 12 13  1  0
 13 14  1  0
 13 15  1  0
 15 16  1  0
 16 17  1  0
 17 18  1  0
 18 19  1  0
 18 20  1  0
 20 21  1  0
 21 22  1  0
 22 23  1  0
 23 24  1  0
 24 25  1  0
 25 26  1  0
 26 27  2  0
 26 28  1  0
 20 29  1  0
 29  5  1  0
 13  7  1  0
 29 15  1  0
 23 18  1  0
 28 23  1  0
M  END
$$$$
