
     RDKit          3D

 33 38  0  0  0  0  0  0  0  0999 V2000
  -17.6948   35.5700  -21.0188 C   0  0  0  0  0  0  0  0  0  0  0  0
  -18.3892   35.0143  -22.0798 C   0  0  0  0  0  0  0  0  0  0  0  0
  -19.0910   35.8479  -22.9475 C   0  0  0  0  0  0  0  0  0  0  0  0
  -19.1010   37.2148  -22.7609 C   0  0  0  0  0  0  0  0  0  0  0  0
  -19.8468   38.0475  -23.6949 C   0  0  0  0  0  0  0  0  0  0  0  0
  -20.9639   37.7530  -24.3826 N   0  0  0  0  0  0  0  0  0  0  0  0
  -21.3231   38.8061  -25.1295 N   0  0  0  0  0  0  0  0  0  0  0  0
  -20.4609   39.8097  -24.9549 C   0  0  0  0  0  0  0  0  0  0  0  0
  -19.5197   39.3377  -24.0454 C   0  0  0  0  0  0  0  0  0  0  0  0
  -18.3641   40.0684  -23.5376 C   0  0  0  0  0  0  0  0  0  0  0  0
  -17.0671   39.6252  -23.7551 C   0  0  0  0  0  0  0  0  0  0  0  0
  -15.9701   40.3137  -23.2672 C   0  0  0  0  0  0  0  0  0  0  0  0
  -16.2017   41.4368  -22.5685 N   0  0  0  0  0  0  0  0  0  0  0  0
  -17.4490   41.9120  -22.3281 C   0  0  0  0  0  0  0  0  0  0  0  0
  -17.6017   43.0708  -21.5979 C   0  0  0  0  0  0  0  0  0  0  0  0
  -18.8587   43.5654  -21.3401 C   0  0  0  0  0  0  0  0  0  0  0  0
  -19.0847   44.6937  -20.6258 O   0  0  0  0  0  0  0  0  0  0  0  0
  -18.4002   45.3407  -19.6285 C   0  0  0  0  0  0  0  0  0  0  0  0
  -17.6032   46.5438  -20.0131 C   0  0  0  0  0  0  0  0  0  0  0  0
  -18.2784   47.7915  -19.6476 N   0  0  0  0  0  0  0  0  0  0  0  0
  -19.5043   47.5423  -18.9501 C   0  0  0  0  0  0  0  0  0  0  0  0
  -20.0207   48.8395  -18.3798 C   0  0  0  0  0  0  0  0  0  0  0  0
  -19.1022   49.2921  -17.4353 O   0  0  0  0  0  0  0  0  0  0  0  0
  -17.9635   49.7079  -18.1304 C   0  0  0  0  0  0  0  0  0  0  0  0
  -17.3471   48.5504  -18.8390 C   0  0  0  0  0  0  0  0  0  0  0  0
  -19.9479   42.8325  -21.8575 C   0  0  0  0  0  0  0  0  0  0  0  0
  -19.8041   41.6837  -22.5821 C   0  0  0  0  0  0  0  0  0  0  0  0
  -18.5323   41.2243  -22.8152 C   0  0  0  0  0  0  0  0  0  0  0  0
  -20.8167   41.0030  -25.7710 C   0  0  0  0  0  0  0  0  0  0  0  0
  -21.7312   40.3772  -26.8094 C   0  0  0  0  0  0  0  0  0  0  0  0
  -22.3327   39.2313  -26.0654 C   0  0  0  0  0  0  0  0  0  0  0  0
  -18.4081   37.6946  -21.7130 N   0  0  0  0  0  0  0  0  0  0  0  0
  -17.7208   36.9289  -20.8560 C   0  0  0  0  0  0  0  0  0  0  0  0
  1  2  2  0
  2  3  1  0
  3  4  2  0
  4  5  1  0
  5  6  2  0
  6  7  1  0
  7  8  1  0
  8  9  2  0
  9 10  1  0
 10 11  2  0
 11 12  1  0
 12 13  2  0
 13 14  1  0
 14 15  2  0
 15 16  1  0
 16 17  1  0
 17 18  1  0
 18 19  1  0
 19 20  1  0
 20 21  1  0
 21 22  1  0
 22 23  1  0
 23 24  1  0
 24 25  1  0
 16 26  2  0
 26 27  1  0
 27 28  2  0
  8 29  1  0
 29 30  1  0
 30 31  1  0
  4 32  1  0
 32 33  2  0
 33  1  1  0
  9  5  1  0
 28 10  1  0
 31  7  1  0
 28 14  1  0
 25 20  1  0
M  END
$$$$
