
     RDKit          3D

 29 29  0  0  0  0  0  0  0  0999 V2000
  -24.3485   -3.1688  -38.0040 C   0  0  0  0  0  0  0  0  0  0  0  0
  -24.4963   -2.2980  -36.8980 O   0  0  0  0  0  0  0  0  0  0  0  0
  -23.3569   -1.6913  -36.4039 C   0  0  0  0  0  0  0  0  0  0  0  0
  -22.0996   -1.8881  -36.9258 C   0  0  0  0  0  0  0  0  0  0  0  0
  -20.9721   -1.2668  -36.4114 C   0  0  0  0  0  0  0  0  0  0  0  0
  -21.1377   -0.4266  -35.3400 C   0  0  0  0  0  0  0  0  0  0  0  0
  -19.9574    0.2632  -34.7534 C   0  0  0  0  0  0  0  0  0  0  0  0
  -19.4079   -0.6422  -33.6769 C   0  0  0  0  0  0  0  0  0  0  0  0
  -18.2874   -0.0267  -33.0688 N   0  0  0  0  0  0  0  0  0  0  0  0
  -17.6256   -0.7460  -32.0423 C   0  0  0  0  0  0  0  0  0  0  0  0
  -16.1378   -0.8682  -32.2293 C   0  0  0  0  0  0  0  0  0  0  0  0
  -15.4965    0.3451  -32.5985 N   0  0  0  0  0  0  0  0  0  0  0  0
  -14.2028    0.1714  -33.1917 C   0  0  0  0  0  0  0  0  0  0  0  0
  -13.1709   -0.3441  -32.2374 C   0  0  0  0  0  0  0  0  0  0  0  0
  -12.9292    0.5466  -31.0558 C   0  0  0  0  0  0  0  0  0  0  0  0
  -12.4600    1.8937  -31.3756 C   0  0  0  0  0  0  0  0  0  0  0  0
  -11.1125    2.1789  -31.4863 C   0  0  0  0  0  0  0  0  0  0  0  0
  -10.6887    3.4692  -31.7896 C   0  0  0  0  0  0  0  0  0  0  0  0
  -11.6159    4.4669  -31.9805 C   0  0  0  0  0  0  0  0  0  0  0  0
  -12.9456    4.1924  -31.8728 C   0  0  0  0  0  0  0  0  0  0  0  0
  -13.3567    2.9060  -31.5707 C   0  0  0  0  0  0  0  0  0  0  0  0
  -16.3032    1.3549  -33.1857 C   0  0  0  0  0  0  0  0  0  0  0  0
  -17.4533    0.7164  -33.9405 C   0  0  0  0  0  0  0  0  0  0  0  0
  -22.3824   -0.1936  -34.7765 C   0  0  0  0  0  0  0  0  0  0  0  0
  -23.4846   -0.8409  -35.3284 C   0  0  0  0  0  0  0  0  0  0  0  0
  -24.7462   -0.6397  -34.7999 O   0  0  0  0  0  0  0  0  0  0  0  0
  -24.8782    0.2325  -33.6964 C   0  0  0  0  0  0  0  0  0  0  0  0
  -17.1394    0.3562  -33.5252 Cl  0  0  0  0  0  0  0  0  0  0  0  0
  -17.1404    0.3558  -33.5255 Cl  0  0  0  0  0  0  0  0  0  0  0  0
  1  2  1  0
  2  3  1  0
  3  4  2  0
  4  5  1  0
  5  6  2  0
  6  7  1  0
  7  8  1  0
  8  9  1  0
  9 10  1  0
 10 11  1  0
 11 12  1  0
 12 13  1  0
 13 14  1  0
 14 15  1  0
 15 16  1  0
 16 17  2  0
 17 18  1  0
 18 19  2  0
 19 20  1  0
 20 21  2  0
 12 22  1  0
 22 23  1  0
  6 24  1  0
 24 25  2  0
 25 26  1  0
 26 27  1  0
 25  3  1  0
 23  9  1  0
 21 16  1  0
M  END
$$$$
