
     RDKit          3D

 27 29  0  0  0  0  0  0  0  0999 V2000
  -17.6744   22.4445  -47.5935 C   0  0  0  0  0  0  0  0  0  0  0  0
  -17.8203   21.9632  -46.2017 C   0  0  0  0  0  0  0  0  0  0  0  0
  -16.9641   22.2132  -45.1518 C   0  0  0  0  0  0  0  0  0  0  0  0
  -17.4873   21.5682  -44.0311 C   0  0  0  0  0  0  0  0  0  0  0  0
  -16.9457   21.5261  -42.6501 C   0  0  0  0  0  0  0  0  0  0  0  0
  -17.4351   22.7101  -41.8309 C   0  0  0  0  0  0  0  0  0  0  0  0
  -18.8317   22.3853  -41.3501 C   0  0  0  0  0  0  0  0  0  0  0  0
  -18.9934   22.6627  -39.9745 O   0  0  0  0  0  0  0  0  0  0  0  0
  -20.2406   23.1165  -39.5673 C   0  0  0  0  0  0  0  0  0  0  0  0
  -21.3275   22.2731  -39.5958 C   0  0  0  0  0  0  0  0  0  0  0  0
  -21.1659   20.8596  -40.0676 C   0  0  0  0  0  0  0  0  0  0  0  0
  -22.5509   22.7493  -39.1868 C   0  0  0  0  0  0  0  0  0  0  0  0
  -22.7217   24.0464  -38.7490 C   0  0  0  0  0  0  0  0  0  0  0  0
  -24.0299   24.5473  -38.3142 C   0  0  0  0  0  0  0  0  0  0  0  0
  -24.2571   25.6528  -37.5733 N   0  0  0  0  0  0  0  0  0  0  0  0
  -25.5436   25.7744  -37.3880 O   0  0  0  0  0  0  0  0  0  0  0  0
  -26.1947   24.8051  -37.9677 C   0  0  0  0  0  0  0  0  0  0  0  0
  -27.6765   24.6101  -37.9733 C   0  0  0  0  0  0  0  0  0  0  0  0
  -28.3312   25.7832  -38.2890 F   0  0  0  0  0  0  0  0  0  0  0  0
  -28.0144   23.6215  -38.8775 F   0  0  0  0  0  0  0  0  0  0  0  0
  -28.1372   24.2122  -36.7255 F   0  0  0  0  0  0  0  0  0  0  0  0
  -25.2504   24.0299  -38.5518 N   0  0  0  0  0  0  0  0  0  0  0  0
  -21.5987   24.8695  -38.7346 C   0  0  0  0  0  0  0  0  0  0  0  0
  -20.3607   24.4190  -39.1387 C   0  0  0  0  0  0  0  0  0  0  0  0
  -19.1546   25.3100  -39.1211 C   0  0  0  0  0  0  0  0  0  0  0  0
  -18.5994   20.9753  -44.4350 O   0  0  0  0  0  0  0  0  0  0  0  0
  -18.8021   21.2011  -45.7040 N   0  0  0  0  0  0  0  0  0  0  0  0
  1  2  1  0
  2  3  1  0
  3  4  2  0
  4  5  1  0
  5  6  1  0
  6  7  1  0
  7  8  1  0
  8  9  1  0
  9 10  2  0
 10 11  1  0
 10 12  1  0
 12 13  2  0
 13 14  1  0
 14 15  2  0
 15 16  1  0
 16 17  1  0
 17 18  1  0
 18 19  1  0
 18 20  1  0
 18 21  1  0
 17 22  2  0
 13 23  1  0
 23 24  2  0
 24 25  1  0
  4 26  1  0
 26 27  1  0
 27  2  2  0
 24  9  1  0
 22 14  1  0
M  END
$$$$
