
     RDKit          3D

 21 23  0  0  0  0  0  0  0  0999 V2000
  -18.7173   20.2477  -31.3272 C   0  0  0  0  0  0  0  0  0  0  0  0
  -19.3660   19.5052  -32.4605 C   0  0  0  0  0  0  0  0  0  0  0  0
  -18.8828   18.4414  -33.1827 C   0  0  0  0  0  0  0  0  0  0  0  0
  -17.5949   17.7719  -33.0297 C   0  0  0  0  0  0  0  0  0  0  0  0
  -16.7364   18.2982  -32.0135 N   0  0  0  0  0  0  0  0  0  0  0  0
  -15.9174   19.3620  -32.2322 C   0  0  0  0  0  0  0  0  0  0  0  0
  -15.2145   19.6271  -31.0710 C   0  0  0  0  0  0  0  0  0  0  0  0
  -15.6031   18.7368  -30.1641 N   0  0  0  0  0  0  0  0  0  0  0  0
  -16.5140   17.9467  -30.7388 C   0  0  0  0  0  0  0  0  0  0  0  0
  -19.8649   18.1149  -34.1150 C   0  0  0  0  0  0  0  0  0  0  0  0
  -19.9642   17.1567  -35.1023 C   0  0  0  0  0  0  0  0  0  0  0  0
  -21.0621   17.0194  -35.9256 C   0  0  0  0  0  0  0  0  0  0  0  0
  -22.1073   17.9094  -35.7245 C   0  0  0  0  0  0  0  0  0  0  0  0
  -22.0348   18.8789  -34.7434 C   0  0  0  0  0  0  0  0  0  0  0  0
  -20.9157   18.9899  -33.9323 C   0  0  0  0  0  0  0  0  0  0  0  0
  -20.5928   19.8329  -32.9167 N   0  0  0  0  0  0  0  0  0  0  0  0
  -21.4503   20.8763  -32.4527 C   0  0  0  0  0  0  0  0  0  0  0  0
  -22.0088   20.6649  -31.0692 C   0  0  0  0  0  0  0  0  0  0  0  0
  -23.4385   20.2894  -31.2051 C   0  0  0  0  0  0  0  0  0  0  0  0
  -24.0089   20.2752  -32.3287 O   0  0  0  0  0  0  0  0  0  0  0  0
  -24.2321   19.9349  -30.1248 O   0  0  0  0  0  0  0  0  0  0  0  0
  1  2  1  0
  2  3  2  0
  3  4  1  0
  4  5  1  0
  5  6  1  0
  6  7  2  0
  7  8  1  0
  8  9  2  0
  3 10  1  0
 10 11  2  0
 11 12  1  0
 12 13  2  0
 13 14  1  0
 14 15  2  0
 15 16  1  0
 16 17  1  0
 17 18  1  0
 18 19  1  0
 19 20  2  0
 19 21  1  0
 16  2  1  0
  9  5  1  0
 15 10  1  0
M  END
$$$$
