
     RDKit          3D

 44 49  0  0  0  0  0  0  0  0999 V2000
  -29.0331   13.8160  -30.0092 C   0  0  0  0  0  0  0  0  0  0  0  0
  -29.5947   14.9156  -30.6553 O   0  0  0  0  0  0  0  0  0  0  0  0
  -29.1907   16.2220  -30.5219 C   0  0  0  0  0  0  0  0  0  0  0  0
  -28.7842   16.7756  -31.6025 O   0  0  0  0  0  0  0  0  0  0  0  0
  -29.2025   16.9781  -29.2535 C   0  0  1  0  0  0  0  0  0  0  0  0
  -30.3219   17.9660  -29.2460 C   0  0  1  0  0  0  0  0  0  0  0  0
  -31.5914   17.2759  -29.6110 C   0  0  0  0  0  0  0  0  0  0  0  0
  -32.8263   17.9827  -29.0981 C   0  0  2  0  0  0  0  0  0  0  0  0
  -33.9279   17.7517  -30.0715 C   0  0  0  0  0  0  0  0  0  0  0  0
  -34.9328   16.8921  -30.2106 N   0  0  0  0  0  0  0  0  0  0  0  0
  -35.6571   17.1457  -31.3187 C   0  0  0  0  0  0  0  0  0  0  0  0
  -36.7710   16.5695  -31.9076 C   0  0  0  0  0  0  0  0  0  0  0  0
  -37.3279   17.0413  -33.0790 C   0  0  0  0  0  0  0  0  0  0  0  0
  -38.4599   16.4265  -33.6437 O   0  0  0  0  0  0  0  0  0  0  0  0
  -38.6603   15.0517  -33.3367 C   0  0  0  0  0  0  0  0  0  0  0  0
  -36.7230   18.1373  -33.6629 C   0  0  0  0  0  0  0  0  0  0  0  0
  -35.6134   18.7255  -33.0928 C   0  0  0  0  0  0  0  0  0  0  0  0
  -35.0716   18.2365  -31.9185 C   0  0  0  0  0  0  0  0  0  0  0  0
  -33.9921   18.6172  -31.1428 C   0  0  0  0  0  0  0  0  0  0  0  0
  -32.9823   19.6820  -31.2350 C   0  0  0  0  0  0  0  0  0  0  0  0
  -32.5653   20.2375  -29.9210 C   0  0  0  0  0  0  0  0  0  0  0  0
  -32.6305   19.3600  -28.8159 N   0  0  0  0  0  0  0  0  0  0  0  0
  -31.6423   19.5495  -27.8131 C   0  0  0  0  0  0  0  0  0  0  0  0
  -30.4129   18.7309  -27.9470 C   0  0  1  0  0  0  0  0  0  0  0  0
  -30.3432   17.7924  -26.7442 C   0  0  0  0  0  0  0  0  0  0  0  0
  -29.0631   17.0379  -26.8378 C   0  0  1  0  0  0  0  0  0  0  0  0
  -28.6923   16.3652  -25.6659 O   0  0  0  0  0  0  0  0  0  0  0  0
  -27.7157   16.7621  -24.7970 C   0  0  0  0  0  0  0  0  0  0  0  0
  -27.2412   17.9029  -24.8945 O   0  0  0  0  0  0  0  0  0  0  0  0
  -27.2218   15.8653  -23.7560 C   0  0  0  0  0  0  0  0  0  0  0  0
  -26.2833   16.2593  -22.8256 C   0  0  0  0  0  0  0  0  0  0  0  0
  -25.8216   15.3945  -21.8394 C   0  0  0  0  0  0  0  0  0  0  0  0
  -24.8776   15.8048  -20.9105 O   0  0  0  0  0  0  0  0  0  0  0  0
  -24.2492   17.0451  -21.0399 C   0  0  0  0  0  0  0  0  0  0  0  0
  -26.2873   14.1053  -21.7553 C   0  0  0  0  0  0  0  0  0  0  0  0
  -25.8479   13.2089  -20.7802 O   0  0  0  0  0  0  0  0  0  0  0  0
  -24.7009   12.4160  -21.0266 C   0  0  0  0  0  0  0  0  0  0  0  0
  -27.2260   13.6964  -22.6787 C   0  0  0  0  0  0  0  0  0  0  0  0
  -27.6909   12.3886  -22.5843 O   0  0  0  0  0  0  0  0  0  0  0  0
  -28.6321   11.9598  -23.5496 C   0  0  0  0  0  0  0  0  0  0  0  0
  -27.6851   14.5694  -23.6658 C   0  0  0  0  0  0  0  0  0  0  0  0
  -29.1907   16.0874  -28.0315 C   0  0  2  0  0  0  0  0  0  0  0  0
  -28.0686   15.2855  -28.0649 O   0  0  0  0  0  0  0  0  0  0  0  0
  -27.0482   15.8751  -28.8439 C   0  0  0  0  0  0  0  0  0  0  0  0
  1  2  1  0
  2  3  1  0
  3  4  2  0
  5  3  1  6
  5  6  1  0
  6  7  1  1
  8  7  1  6
  8  9  1  0
  9 10  1  0
 10 11  1  0
 11 12  2  0
 12 13  1  0
 13 14  1  0
 14 15  1  0
 13 16  2  0
 16 17  1  0
 17 18  2  0
 18 19  1  0
 19 20  1  0
 20 21  1  0
 21 22  1  0
 22 23  1  0
 24 23  1  6
 24 25  1  0
 25 26  1  0
 26 27  1  1
 27 28  1  0
 28 29  2  0
 28 30  1  0
 30 31  2  0
 31 32  1  0
 32 33  1  0
 33 34  1  0
 32 35  2  0
 35 36  1  0
 36 37  1  0
 35 38  1  0
 38 39  1  0
 39 40  1  0
 38 41  2  0
 26 42  1  0
 42 43  1  6
 43 44  1  0
 42  5  1  0
 24  6  1  0
 41 30  1  0
 22  8  1  0
 19  9  2  0
 18 11  1  0
M  END
$$$$
