
     RDKit          3D

 33 36  0  0  0  0  0  0  0  0999 V2000
  -21.3036   48.5668  -13.3920 C   0  0  0  0  0  0  0  0  0  0  0  0
  -20.8470   47.4865  -14.1578 O   0  0  0  0  0  0  0  0  0  0  0  0
  -20.1519   47.7029  -15.3550 C   0  0  0  0  0  0  0  0  0  0  0  0
  -19.0757   48.5749  -15.3658 C   0  0  0  0  0  0  0  0  0  0  0  0
  -18.3545   48.8278  -16.5114 C   0  0  0  0  0  0  0  0  0  0  0  0
  -17.2834   49.6075  -16.8263 N   0  0  0  0  0  0  0  0  0  0  0  0
  -17.0481   49.4149  -18.1465 C   0  0  0  0  0  0  0  0  0  0  0  0
  -17.9200   48.5612  -18.6432 N   0  0  0  0  0  0  0  0  0  0  0  0
  -17.9613   48.1321  -20.0102 C   0  0  0  0  0  0  0  0  0  0  0  0
  -17.5922   46.9755  -20.5688 C   0  0  0  0  0  0  0  0  0  0  0  0
  -17.7107   46.7594  -21.8919 C   0  0  0  0  0  0  0  0  0  0  0  0
  -17.3511   45.5687  -22.5892 O   0  0  0  0  0  0  0  0  0  0  0  0
  -16.5970   44.5172  -22.2134 C   0  0  0  0  0  0  0  0  0  0  0  0
  -17.2481   43.3798  -21.5241 C   0  0  0  0  0  0  0  0  0  0  0  0
  -18.6324   43.1825  -21.5033 C   0  0  0  0  0  0  0  0  0  0  0  0
  -19.2184   42.0948  -20.8817 C   0  0  0  0  0  0  0  0  0  0  0  0
  -18.3983   41.1768  -20.2625 C   0  0  0  0  0  0  0  0  0  0  0  0
  -17.0306   41.3491  -20.2693 C   0  0  0  0  0  0  0  0  0  0  0  0
  -16.4458   42.4528  -20.9007 C   0  0  0  0  0  0  0  0  0  0  0  0
  -14.9731   42.5964  -20.8833 C   0  0  0  0  0  0  0  0  0  0  0  0
  -14.4690   42.5206  -22.1879 F   0  0  0  0  0  0  0  0  0  0  0  0
  -14.5450   43.8210  -20.4022 F   0  0  0  0  0  0  0  0  0  0  0  0
  -14.3810   41.5535  -20.2002 F   0  0  0  0  0  0  0  0  0  0  0  0
  -18.2466   47.8246  -22.6459 C   0  0  0  0  0  0  0  0  0  0  0  0
  -18.5124   47.9489  -24.0440 C   0  0  0  0  0  0  0  0  0  0  0  0
  -18.3168   46.8164  -24.8930 N   0  0  0  0  0  0  0  0  0  0  0  0
  -18.9073   49.0221  -24.5192 O   0  0  0  0  0  0  0  0  0  0  0  0
  -18.5481   49.0914  -21.3675 S   0  0  0  0  0  0  0  0  0  0  0  0
  -18.7524   48.1647  -17.6785 C   0  0  0  0  0  0  0  0  0  0  0  0
  -19.8174   47.3039  -17.6603 C   0  0  0  0  0  0  0  0  0  0  0  0
  -20.5473   47.0463  -16.5059 C   0  0  0  0  0  0  0  0  0  0  0  0
  -21.6295   46.1789  -16.4622 O   0  0  0  0  0  0  0  0  0  0  0  0
  -22.1052   45.4712  -17.5694 C   0  0  0  0  0  0  0  0  0  0  0  0
  1  2  1  0
  2  3  1  0
  3  4  2  0
  4  5  1  0
  5  6  1  0
  6  7  2  0
  7  8  1  0
  8  9  1  0
  9 10  2  0
 10 11  1  0
 11 12  1  0
 12 13  1  0
 13 14  1  0
 14 15  2  0
 15 16  1  0
 16 17  2  0
 17 18  1  0
 18 19  2  0
 19 20  1  0
 20 21  1  0
 20 22  1  0
 20 23  1  0
 11 24  2  0
 24 25  1  0
 25 26  1  0
 25 27  2  0
 24 28  1  0
  8 29  1  0
 29 30  1  0
 30 31  2  0
 31 32  1  0
 32 33  1  0
 31  3  1  0
 29  5  2  0
 28  9  1  0
 19 14  1  0
M  END
$$$$
