
     RDKit          3D

 17 19  0  0  0  0  0  0  0  0999 V2000
  -33.8063   12.9627  -24.9971 C   0  0  0  0  0  0  0  0  0  0  0  0
  -32.7925   14.0307  -25.2663 C   0  0  0  0  0  0  0  0  0  0  0  0
  -32.7660   14.6186  -26.5161 C   0  0  0  0  0  0  0  0  0  0  0  0
  -31.8315   15.6030  -26.7645 C   0  0  0  0  0  0  0  0  0  0  0  0
  -30.9151   16.0372  -25.8297 C   0  0  0  0  0  0  0  0  0  0  0  0
  -29.9590   17.0353  -26.0669 N   0  0  0  0  0  0  0  0  0  0  0  0
  -30.2868   18.5047  -27.1306 S   0  0  0  0  0  0  0  0  0  0  0  0
  -28.7326   19.2148  -26.9396 C   0  0  0  0  0  0  0  0  0  0  0  0
  -28.2082   20.3899  -27.4665 C   0  0  0  0  0  0  0  0  0  0  0  0
  -26.9067   20.7539  -27.1608 C   0  0  0  0  0  0  0  0  0  0  0  0
  -26.2086   19.9021  -26.3350 C   0  0  0  0  0  0  0  0  0  0  0  0
  -26.7469   18.7490  -25.8277 C   0  0  0  0  0  0  0  0  0  0  0  0
  -28.0738   18.3590  -26.1274 C   0  0  0  0  0  0  0  0  0  0  0  0
  -28.7472   17.2595  -25.7097 C   0  0  0  0  0  0  0  0  0  0  0  0
  -28.1649   16.3843  -24.9168 O   0  0  0  0  0  0  0  0  0  0  0  0
  -30.9768   15.4152  -24.5773 C   0  0  0  0  0  0  0  0  0  0  0  0
  -31.8961   14.4315  -24.2988 C   0  0  0  0  0  0  0  0  0  0  0  0
  1  2  1  0
  2  3  2  0
  3  4  1  0
  4  5  2  0
  5  6  1  0
  6  7  1  0
  7  8  1  0
  8  9  2  0
  9 10  1  0
 10 11  2  0
 11 12  1  0
 12 13  2  0
 13 14  1  0
 14 15  2  0
  5 16  1  0
 16 17  2  0
 17  2  1  0
 14  6  1  0
 13  8  1  0
M  END
$$$$
