
     RDKit          3D

 36 39  0  0  0  0  0  0  0  0999 V2000
  -22.1951   16.0613  -33.5591 C   0  0  0  0  0  0  0  0  0  0  0  0
  -23.3675   16.9846  -33.3087 C   0  0  0  0  0  0  0  0  0  0  0  0
  -23.2115   17.6252  -31.9465 C   0  0  0  0  0  0  0  0  0  0  0  0
  -23.8169   16.7425  -30.8840 C   0  0  0  0  0  0  0  0  0  0  0  0
  -23.9043   15.5014  -31.0449 O   0  0  0  0  0  0  0  0  0  0  0  0
  -24.2863   17.2890  -29.7131 O   0  0  0  0  0  0  0  0  0  0  0  0
  -25.1415   16.7170  -28.7734 C   0  0  2  0  0  0  0  0  0  0  0  0
  -24.5122   15.8014  -27.8054 C   0  0  0  0  0  0  0  0  0  0  0  0
  -23.5420   16.1712  -27.1906 O   0  0  0  0  0  0  0  0  0  0  0  0
  -25.0058   14.4606  -27.5380 C   0  0  0  0  0  0  0  0  0  0  0  0
  -23.9757   13.6328  -26.9241 O   0  0  0  0  0  0  0  0  0  0  0  0
  -24.1273   13.1460  -25.6533 C   0  0  0  0  0  0  0  0  0  0  0  0
  -24.7198   11.8104  -25.3602 C   0  0  0  0  0  0  0  0  0  0  0  0
  -23.7552   13.8441  -24.6761 O   0  0  0  0  0  0  0  0  0  0  0  0
  -26.0678   15.7333  -29.5576 C   0  0  0  0  0  0  0  0  0  0  0  0
  -27.3794   15.8228  -28.7605 C   0  0  0  0  0  0  0  0  0  0  0  0
  -27.4075   17.3032  -28.6298 C   0  0  1  0  0  0  0  0  0  0  0  0
  -28.4859   17.9446  -27.8749 C   0  0  2  0  0  0  0  0  0  0  0  0
  -29.8356   17.3523  -28.0613 C   0  0  0  0  0  0  0  0  0  0  0  0
  -30.9484   18.1847  -27.5108 C   0  0  2  0  0  0  0  0  0  0  0  0
  -32.1101   17.8190  -28.1611 F   0  0  0  0  0  0  0  0  0  0  0  0
  -30.6981   19.6454  -27.6036 C   0  0  0  0  0  0  0  0  0  0  0  0
  -31.7295   20.4195  -27.8103 C   0  0  0  0  0  0  0  0  0  0  0  0
  -31.6050   21.8624  -27.9189 C   0  0  0  0  0  0  0  0  0  0  0  0
  -32.6159   22.5950  -28.1186 O   0  0  0  0  0  0  0  0  0  0  0  0
  -30.2691   22.4240  -27.7879 C   0  0  0  0  0  0  0  0  0  0  0  0
  -29.2265   21.6308  -27.5809 C   0  0  0  0  0  0  0  0  0  0  0  0
  -29.2873   20.1876  -27.4697 C   0  0  1  0  0  0  0  0  0  0  0  0
  -28.9564   19.8730  -25.9966 C   0  0  0  0  0  0  0  0  0  0  0  0
  -28.5248   19.3768  -28.4487 C   0  0  2  0  0  0  0  0  0  0  0  0
  -29.4447   19.2609  -29.5451 F   0  0  0  0  0  0  0  0  0  0  0  0
  -27.2709   19.8038  -29.0347 C   0  0  1  0  0  0  0  0  0  0  0  0
  -27.0257   21.1784  -29.0104 O   0  0  0  0  0  0  0  0  0  0  0  0
  -25.9632   19.1534  -28.6805 C   0  0  0  0  0  0  0  0  0  0  0  0
  -26.0358   17.7574  -28.1853 C   0  0  2  0  0  0  0  0  0  0  0  0
  -25.8890   17.8405  -26.6743 C   0  0  0  0  0  0  0  0  0  0  0  0
  1  2  1  0
  2  3  1  0
  3  4  1  0
  4  5  2  0
  4  6  1  0
  7  6  1  6
  7  8  1  0
  8  9  2  0
  8 10  1  0
 10 11  1  0
 11 12  1  0
 12 13  1  0
 12 14  2  0
  7 15  1  0
 15 16  1  0
 17 16  1  1
 17 18  1  0
 18 19  1  6
 19 20  1  0
 20 21  1  6
 20 22  1  0
 22 23  2  0
 23 24  1  0
 24 25  2  0
 24 26  1  0
 26 27  2  0
 27 28  1  0
 28 29  1  1
 28 30  1  0
 30 31  1  6
 30 32  1  0
 32 33  1  1
 32 34  1  0
 34 35  1  0
 35 36  1  1
 35  7  1  0
 35 17  1  0
 30 18  1  0
 28 22  1  0
M  END
$$$$
