
     RDKit          3D

 27 28  0  0  0  0  0  0  0  0999 V2000
  -20.6179   19.6011  -41.9350 N   0  0  0  0  0  0  0  0  0  0  0  0
  -21.0197   20.8649  -41.2916 C   0  0  1  0  0  0  0  0  0  0  0  0
  -20.7547   20.7123  -39.8003 C   0  0  0  0  0  0  0  0  0  0  0  0
  -19.9513   19.4929  -39.5271 C   0  0  0  0  0  0  0  0  0  0  0  0
  -19.7116   19.3822  -38.0279 C   0  0  0  0  0  0  0  0  0  0  0  0
  -19.0346   18.1213  -37.6119 C   0  0  0  0  0  0  0  0  0  0  0  0
  -17.6518   18.3937  -37.3470 N   0  0  0  0  0  0  0  0  0  0  0  0
  -17.1866   18.4513  -36.0183 C   0  0  0  0  0  0  0  0  0  0  0  0
  -17.3620   19.4064  -35.2252 O   0  0  0  0  0  0  0  0  0  0  0  0
  -16.4639   17.3807  -35.4911 O   0  0  0  0  0  0  0  0  0  0  0  0
  -16.9392   16.6053  -34.4281 C   0  0  0  0  0  0  0  0  0  0  0  0
  -15.7825   15.9005  -33.8164 C   0  0  0  0  0  0  0  0  0  0  0  0
  -15.5046   14.6007  -34.2105 C   0  0  0  0  0  0  0  0  0  0  0  0
  -14.4416   13.9271  -33.6607 C   0  0  0  0  0  0  0  0  0  0  0  0
  -13.6565   14.5578  -32.7147 C   0  0  0  0  0  0  0  0  0  0  0  0
  -12.5682   13.8840  -32.1445 N   0  0  0  0  0  4  0  0  0  0  0  0
  -12.1268   14.2556  -31.0409 O   0  0  0  0  0  0  0  0  0  0  0  0
  -11.9925   12.8151  -32.8064 O   0  0  0  0  0  1  0  0  0  0  0  0
  -13.9374   15.8556  -32.3240 C   0  0  0  0  0  0  0  0  0  0  0  0
  -15.0029   16.5339  -32.8735 C   0  0  0  0  0  0  0  0  0  0  0  0
  -20.2298   21.9865  -41.8005 C   0  0  0  0  0  0  0  0  0  0  0  0
  -19.1843   21.7720  -42.5056 O   0  0  0  0  0  0  0  0  0  0  0  0
  -20.5812   23.3193  -41.5456 N   0  0  0  0  0  0  0  0  0  0  0  0
  -21.7417   23.8134  -40.8552 C   0  0  0  0  0  0  0  0  0  0  0  0
  -22.1496   25.0553  -41.6214 C   0  0  0  0  0  0  0  0  0  0  0  0
  -20.8610   25.5084  -42.2888 C   0  0  0  0  0  0  0  0  0  0  0  0
  -19.8246   24.4853  -41.9376 C   0  0  0  0  0  0  0  0  0  0  0  0
  2  1  1  6
  2  3  1  0
  3  4  1  0
  4  5  1  0
  5  6  1  0
  6  7  1  0
  7  8  1  0
  8  9  2  0
  8 10  1  0
 10 11  1  0
 11 12  1  0
 12 13  2  0
 13 14  1  0
 14 15  2  0
 15 16  1  0
 16 17  2  0
 16 18  1  0
 15 19  1  0
 19 20  2  0
  2 21  1  0
 21 22  2  0
 21 23  1  0
 23 24  1  0
 24 25  1  0
 25 26  1  0
 26 27  1  0
 20 12  1  0
 27 23  1  0
M  CHG  2  16   1  18  -1
M  END
$$$$
