
     RDKit          3D

 30 34  0  0  0  0  0  0  0  0999 V2000
  -22.2374    3.9160  -29.2609 C   0  0  0  0  0  0  0  0  0  0  0  0
  -22.4389    2.5234  -29.5838 C   0  0  1  0  0  0  0  0  0  0  0  0
  -21.2043    1.8012  -29.1675 N   0  0  0  0  0  0  0  0  0  0  0  0
  -20.1135    1.6413  -30.0544 C   0  0  0  0  0  0  0  0  0  0  0  0
  -18.9319    1.1380  -29.6822 N   0  0  0  0  0  0  0  0  0  0  0  0
  -17.8953    0.9981  -30.5409 C   0  0  0  0  0  0  0  0  0  0  0  0
  -17.9954    1.3611  -31.8308 N   0  0  0  0  0  0  0  0  0  0  0  0
  -19.1677    1.8737  -32.2522 C   0  0  0  0  0  0  0  0  0  0  0  0
  -19.5630    2.3191  -33.4649 N   0  0  0  0  0  0  0  0  0  0  0  0
  -20.8228    2.7248  -33.3477 C   0  0  0  0  0  0  0  0  0  0  0  0
  -21.2490    2.5504  -32.0838 N   0  0  0  0  0  0  0  0  0  0  0  0
  -20.2324    2.0183  -31.3743 C   0  0  0  0  0  0  0  0  0  0  0  0
  -23.5426    1.7170  -29.1813 C   0  0  0  0  0  0  0  0  0  0  0  0
  -23.5088    1.3304  -27.8173 C   0  0  0  0  0  0  0  0  0  0  0  0
  -24.4739    0.5501  -27.2421 C   0  0  0  0  0  0  0  0  0  0  0  0
  -24.4556    0.1665  -25.9189 C   0  0  0  0  0  0  0  0  0  0  0  0
  -25.4628   -0.6272  -25.3850 C   0  0  0  0  0  0  0  0  0  0  0  0
  -26.4910   -1.0371  -26.1817 C   0  0  0  0  0  0  0  0  0  0  0  0
  -26.5330   -0.6708  -27.4974 C   0  0  0  0  0  0  0  0  0  0  0  0
  -27.8503   -1.1920  -28.5307 Cl  0  0  0  0  0  0  0  0  0  0  0  0
  -25.5245    0.1215  -28.0232 C   0  0  0  0  0  0  0  0  0  0  0  0
  -25.5719    0.4843  -29.3372 C   0  0  0  0  0  0  0  0  0  0  0  0
  -26.5028    0.1306  -30.1165 O   0  0  0  0  0  0  0  0  0  0  0  0
  -24.5646    1.2779  -29.8692 N   0  0  0  0  0  0  0  0  0  0  0  0
  -24.6655    1.6068  -31.2468 C   0  0  0  0  0  0  0  0  0  0  0  0
  -24.1016    0.8283  -32.2068 C   0  0  0  0  0  0  0  0  0  0  0  0
  -24.1753    1.1729  -33.5263 C   0  0  0  0  0  0  0  0  0  0  0  0
  -24.8380    2.3354  -33.8697 C   0  0  0  0  0  0  0  0  0  0  0  0
  -25.4274    3.1611  -32.9372 C   0  0  0  0  0  0  0  0  0  0  0  0
  -25.3160    2.7513  -31.6056 C   0  0  0  0  0  0  0  0  0  0  0  0
  2  1  1  1
  2  3  1  0
  3  4  1  0
  4  5  2  0
  5  6  1  0
  6  7  2  0
  7  8  1  0
  8  9  1  0
  9 10  1  0
 10 11  2  0
 11 12  1  0
  2 13  1  0
 13 14  2  0
 14 15  1  0
 15 16  2  0
 16 17  1  0
 17 18  2  0
 18 19  1  0
 19 20  1  0
 19 21  2  0
 21 22  1  0
 22 23  2  0
 22 24  1  0
 24 25  1  0
 25 26  2  0
 26 27  1  0
 27 28  2  0
 28 29  1  0
 29 30  2  0
 12  4  1  0
 24 13  1  0
 30 25  1  0
 12  8  2  0
 21 15  1  0
M  END
$$$$
