
     RDKit          3D

 24 26  0  0  0  0  0  0  0  0999 V2000
  -16.8361   15.8382  -35.1848 N   0  0  0  0  0  0  0  0  0  0  0  0
  -17.0162   16.7923  -34.1688 C   0  0  0  0  0  0  0  0  0  0  0  0
  -17.0851   17.9947  -34.5120 O   0  0  0  0  0  0  0  0  0  0  0  0
  -17.1238   16.4308  -32.7562 C   0  0  0  0  0  0  0  0  0  0  0  0
  -17.2193   17.7084  -31.9575 C   0  0  0  0  0  0  0  0  0  0  0  0
  -17.8372   17.7241  -30.7278 C   0  0  0  0  0  0  0  0  0  0  0  0
  -17.9338   18.8748  -29.9872 C   0  0  0  0  0  0  0  0  0  0  0  0
  -17.4206   20.0700  -30.4322 C   0  0  0  0  0  0  0  0  0  0  0  0
  -16.8021   20.0597  -31.6619 C   0  0  0  0  0  0  0  0  0  0  0  0
  -16.7003   18.8985  -32.4177 C   0  0  0  0  0  0  0  0  0  0  0  0
  -15.8931   15.7133  -32.2739 C   0  0  0  0  0  0  0  0  0  0  0  0
  -15.4119   15.8809  -31.0031 C   0  0  0  0  0  0  0  0  0  0  0  0
  -14.2899   15.2212  -30.5295 C   0  0  0  0  0  0  0  0  0  0  0  0
  -13.6274   14.3556  -31.3782 C   0  0  0  0  0  0  0  0  0  0  0  0
  -12.5241   13.7039  -30.9198 F   0  0  0  0  0  0  0  0  0  0  0  0
  -14.1023   14.1733  -32.6722 C   0  0  0  0  0  0  0  0  0  0  0  0
  -15.2319   14.8501  -33.1190 C   0  0  0  0  0  0  0  0  0  0  0  0
  -18.2935   15.6003  -32.4513 C   0  0  0  0  0  0  0  0  0  0  0  0
  -19.5511   16.0707  -32.7508 C   0  0  0  0  0  0  0  0  0  0  0  0
  -20.6569   15.2889  -32.4536 C   0  0  0  0  0  0  0  0  0  0  0  0
  -20.4995   14.0524  -31.8638 C   0  0  0  0  0  0  0  0  0  0  0  0
  -21.5897   13.2971  -31.5779 F   0  0  0  0  0  0  0  0  0  0  0  0
  -19.2212   13.5959  -31.5696 C   0  0  0  0  0  0  0  0  0  0  0  0
  -18.1306   14.3541  -31.8569 C   0  0  0  0  0  0  0  0  0  0  0  0
  1  2  1  0
  2  3  2  0
  2  4  1  0
  4  5  1  0
  5  6  2  0
  6  7  1  0
  7  8  2  0
  8  9  1  0
  9 10  2  0
  4 11  1  0
 11 12  2  0
 12 13  1  0
 13 14  2  0
 14 15  1  0
 14 16  1  0
 16 17  2  0
  4 18  1  0
 18 19  2  0
 19 20  1  0
 20 21  2  0
 21 22  1  0
 21 23  1  0
 23 24  2  0
 10  5  1  0
 17 11  1  0
 24 18  1  0
M  END
$$$$
