
     RDKit          3D

 28 31  0  0  0  0  0  0  0  0999 V2000
  -14.6074   18.8949  -41.0718 N   0  0  0  0  0  0  0  0  0  0  0  0
  -15.0936   18.2260  -39.9435 C   0  0  0  0  0  0  0  0  0  0  0  0
  -16.3324   17.8469  -40.0925 O   0  0  0  0  0  0  0  0  0  0  0  0
  -14.4811   17.9031  -38.7052 C   0  0  0  0  0  0  0  0  0  0  0  0
  -13.0814   17.8799  -38.6377 C   0  0  0  0  0  0  0  0  0  0  0  0
  -12.4196   17.5758  -37.4732 C   0  0  0  0  0  0  0  0  0  0  0  0
  -11.0804   17.5590  -37.4296 F   0  0  0  0  0  0  0  0  0  0  0  0
  -13.1101   17.2813  -36.3242 C   0  0  0  0  0  0  0  0  0  0  0  0
  -14.5221   17.3035  -36.3873 C   0  0  0  0  0  0  0  0  0  0  0  0
  -15.1781   17.6098  -37.5606 C   0  0  0  0  0  0  0  0  0  0  0  0
  -16.5953   17.5433  -37.2808 C   0  0  0  0  0  0  0  0  0  0  0  0
  -17.5513   17.7537  -38.0787 O   0  0  0  0  0  0  0  0  0  0  0  0
  -16.7981   17.1859  -35.8963 N   0  0  0  0  0  0  0  0  0  0  0  0
  -18.1029   17.0320  -35.2794 C   0  0  0  0  0  0  0  0  0  0  0  0
  -18.1648   17.6986  -33.9445 C   0  0  0  0  0  0  0  0  0  0  0  0
  -19.4758   17.2782  -33.2922 C   0  0  0  0  0  0  0  0  0  0  0  0
  -20.5918   17.2819  -34.1498 N   0  0  0  0  0  0  0  0  0  0  0  0
  -21.4601   16.1692  -34.1053 C   0  0  0  0  0  0  0  0  0  0  0  0
  -21.3317   15.3455  -32.8452 C   0  0  0  0  0  0  0  0  0  0  0  0
  -21.9161   13.9878  -33.1474 C   0  0  0  0  0  0  0  0  0  0  0  0
  -23.3234   14.0452  -33.6568 C   0  0  0  0  0  0  0  0  0  0  0  0
  -24.2543   14.0850  -32.6186 F   0  0  0  0  0  0  0  0  0  0  0  0
  -23.5674   12.8496  -34.3257 F   0  0  0  0  0  0  0  0  0  0  0  0
  -23.6164   15.1621  -34.5825 C   0  0  0  0  0  0  0  0  0  0  0  0
  -22.9295   16.4655  -34.2448 C   0  0  0  0  0  0  0  0  0  0  0  0
  -20.4379   17.9457  -35.3988 C   0  0  0  0  0  0  0  0  0  0  0  0
  -19.2002   17.5749  -36.1608 C   0  0  0  0  0  0  0  0  0  0  0  0
  -15.5056   17.0306  -35.3176 C   0  0  0  0  0  0  0  0  0  0  0  0
  1  2  1  0
  2  3  2  0
  2  4  1  0
  4  5  2  0
  5  6  1  0
  6  7  1  0
  6  8  2  0
  8  9  1  0
  9 10  2  0
 10 11  1  0
 11 12  2  0
 11 13  1  0
 13 14  1  0
 14 15  1  0
 15 16  1  0
 16 17  1  0
 17 18  1  0
 18 19  1  0
 19 20  1  0
 20 21  1  0
 21 22  1  0
 21 23  1  0
 21 24  1  0
 24 25  1  0
 17 26  1  0
 26 27  1  0
 13 28  1  0
 10  4  1  0
 27 14  1  0
 28  9  1  0
 25 18  1  0
M  END
$$$$
