
     RDKit          3D

 29 31  0  0  0  0  0  0  0  0999 V2000
  -19.9220   20.9471  -44.3515 C   0  0  0  0  0  0  0  0  0  0  0  0
  -21.0259   21.3657  -43.4172 C   0  0  0  0  0  0  0  0  0  0  0  0
  -20.6404   21.5348  -42.0155 C   0  0  0  0  0  0  0  0  0  0  0  0
  -19.9852   20.3685  -41.3627 C   0  0  0  0  0  0  0  0  0  0  0  0
  -18.5030   20.3004  -41.3199 C   0  0  0  0  0  0  0  0  0  0  0  0
  -21.5891   22.1991  -41.1430 N   0  0  0  0  0  0  0  0  0  0  0  0
  -22.8937   22.3349  -41.5352 C   0  0  0  0  0  0  0  0  0  0  0  0
  -23.6147   22.9834  -40.5599 C   0  0  0  0  0  0  0  0  0  0  0  0
  -22.7458   23.2538  -39.5530 C   0  0  0  0  0  0  0  0  0  0  0  0
  -22.8657   23.8726  -38.3281 C   0  0  0  0  0  0  0  0  0  0  0  0
  -24.1589   24.3703  -37.8204 C   0  0  0  0  0  0  0  0  0  0  0  0
  -25.1458   23.6775  -38.1693 O   0  0  0  0  0  0  0  0  0  0  0  0
  -24.3432   25.4940  -37.0115 N   0  0  0  0  0  0  0  0  0  0  0  0
  -25.4823   26.0828  -36.4276 C   0  0  0  0  0  0  0  0  0  0  0  0
  -26.4317   26.9158  -37.1107 C   0  0  0  0  0  0  0  0  0  0  0  0
  -27.5217   26.5512  -37.8008 C   0  0  0  0  0  0  0  0  0  0  0  0
  -27.9300   25.1251  -37.9387 C   0  0  0  0  0  0  0  0  0  0  0  0
  -28.4075   27.4632  -38.3932 C   0  0  0  0  0  0  0  0  0  0  0  0
  -28.1741   28.8012  -38.2781 C   0  0  0  0  0  0  0  0  0  0  0  0
  -29.1117   29.7873  -38.8669 C   0  0  0  0  0  0  0  0  0  0  0  0
  -27.0789   29.1926  -37.5868 N   0  0  0  0  0  0  0  0  0  0  0  0
  -26.2438   28.3323  -37.0305 C   0  0  0  0  0  0  0  0  0  0  0  0
  -25.2525   28.7656  -36.4096 O   0  0  0  0  0  0  0  0  0  0  0  0
  -21.7787   24.0041  -37.4911 C   0  0  0  0  0  0  0  0  0  0  0  0
  -20.5505   23.5241  -37.8552 C   0  0  0  0  0  0  0  0  0  0  0  0
  -19.3808   23.6263  -37.0175 C   0  0  0  0  0  0  0  0  0  0  0  0
  -18.4475   23.7206  -36.3517 N   0  0  0  0  0  0  0  0  0  0  0  0
  -20.4310   22.8934  -39.1016 C   0  0  0  0  0  0  0  0  0  0  0  0
  -21.5024   22.7521  -39.9484 C   0  0  0  0  0  0  0  0  0  0  0  0
  1  2  1  0
  2  3  1  0
  3  4  1  0
  4  5  1  0
  3  6  1  0
  6  7  1  0
  7  8  2  0
  8  9  1  0
  9 10  2  0
 10 11  1  0
 11 12  2  0
 11 13  1  0
 13 14  1  0
 14 15  1  0
 15 16  2  0
 16 17  1  0
 16 18  1  0
 18 19  2  0
 19 20  1  0
 19 21  1  0
 21 22  1  0
 22 23  2  0
 10 24  1  0
 24 25  2  0
 25 26  1  0
 26 27  3  0
 25 28  1  0
 28 29  2  0
 29  6  1  0
 29  9  1  0
 22 15  1  0
M  END
$$$$
