
     RDKit          3D

 42 46  0  0  0  0  0  0  0  0999 V2000
  -29.2620   15.4455  -28.1754 C   0  0  0  0  0  0  0  0  0  0  0  0
  -28.0280   15.4797  -29.0158 C   0  0  0  0  0  0  0  0  0  0  0  0
  -28.0975   15.3132  -30.3712 C   0  0  0  0  0  0  0  0  0  0  0  0
  -26.9528   15.3367  -31.1634 C   0  0  0  0  0  0  0  0  0  0  0  0
  -25.7072   15.5307  -30.5966 C   0  0  0  0  0  0  0  0  0  0  0  0
  -24.5129   15.5670  -31.3788 N   0  0  0  0  0  0  0  0  0  0  0  0
  -23.2665   15.3517  -30.7440 C   0  0  0  0  0  0  0  0  0  0  0  0
  -23.2479   15.2198  -29.4716 O   0  0  0  0  0  0  0  0  0  0  0  0
  -22.0128   15.2773  -31.4839 C   0  0  0  0  0  0  0  0  0  0  0  0
  -21.8250   16.0807  -32.5834 C   0  0  0  0  0  0  0  0  0  0  0  0
  -20.6503   15.9688  -33.2895 C   0  0  0  0  0  0  0  0  0  0  0  0
  -19.6571   15.0776  -32.9307 C   0  0  0  0  0  0  0  0  0  0  0  0
  -18.4343   14.9970  -33.8016 C   0  0  0  0  0  0  0  0  0  0  0  0
  -17.8923   16.3256  -33.8298 N   0  0  0  0  0  0  0  0  0  0  0  0
  -17.7056   16.7973  -35.1537 C   0  0  0  0  0  0  0  0  0  0  0  0
  -16.6352   17.8715  -35.0480 C   0  0  0  0  0  0  0  0  0  0  0  0
  -16.1303   17.7458  -33.6366 C   0  0  2  0  0  0  0  0  0  0  0  0
  -14.7398   17.9532  -33.4731 N   0  0  0  0  0  0  0  0  0  0  0  0
  -13.8673   17.2418  -34.3395 C   0  0  0  0  0  0  0  0  0  0  0  0
  -14.4302   19.3225  -33.2577 C   0  0  0  0  0  0  0  0  0  0  0  0
  -16.6072   16.3687  -33.1794 C   0  0  0  0  0  0  0  0  0  0  0  0
  -19.8329   14.2754  -31.8381 C   0  0  0  0  0  0  0  0  0  0  0  0
  -18.7898   13.3115  -31.4411 C   0  0  0  0  0  0  0  0  0  0  0  0
  -17.5328   13.8392  -31.3992 F   0  0  0  0  0  0  0  0  0  0  0  0
  -18.8469   12.1728  -32.2611 F   0  0  0  0  0  0  0  0  0  0  0  0
  -19.0931   12.8400  -30.1637 F   0  0  0  0  0  0  0  0  0  0  0  0
  -21.0283   14.4002  -31.1322 C   0  0  0  0  0  0  0  0  0  0  0  0
  -25.6545   15.6984  -29.2286 C   0  0  0  0  0  0  0  0  0  0  0  0
  -26.7869   15.6762  -28.4329 C   0  0  0  0  0  0  0  0  0  0  0  0
  -26.7726   15.8666  -27.0266 N   0  0  0  0  0  0  0  0  0  0  0  0
  -26.9237   17.1436  -26.4774 C   0  0  0  0  0  0  0  0  0  0  0  0
  -26.2865   17.4119  -25.3265 N   0  0  0  0  0  0  0  0  0  0  0  0
  -26.3996   18.6264  -24.7797 C   0  0  0  0  0  0  0  0  0  0  0  0
  -27.1722   19.6275  -25.3872 C   0  0  0  0  0  0  0  0  0  0  0  0
  -27.8064   19.3309  -26.5516 C   0  0  0  0  0  0  0  0  0  0  0  0
  -28.6211   20.2848  -27.2473 C   0  0  0  0  0  0  0  0  0  0  0  0
  -28.6426   20.3391  -28.6105 C   0  0  0  0  0  0  0  0  0  0  0  0
  -29.4211   21.2472  -29.2471 N   0  0  0  0  0  0  0  0  0  0  0  0
  -30.1611   22.0798  -28.5140 C   0  0  0  0  0  0  0  0  0  0  0  0
  -30.1658   22.0548  -27.1768 N   0  0  0  0  0  0  0  0  0  0  0  0
  -29.4047   21.1675  -26.5277 C   0  0  0  0  0  0  0  0  0  0  0  0
  -27.6529   18.0852  -27.0533 N   0  0  0  0  0  0  0  0  0  0  0  0
  1  2  1  0
  2  3  2  0
  3  4  1  0
  4  5  2  0
  5  6  1  0
  6  7  1  0
  7  8  2  0
  7  9  1  0
  9 10  2  0
 10 11  1  0
 11 12  2  0
 12 13  1  0
 13 14  1  0
 14 15  1  0
 15 16  1  0
 16 17  1  0
 17 18  1  6
 18 19  1  0
 18 20  1  0
 17 21  1  0
 12 22  1  0
 22 23  1  0
 23 24  1  0
 23 25  1  0
 23 26  1  0
 22 27  2  0
  5 28  1  0
 28 29  2  0
 29 30  1  0
 30 31  1  0
 31 32  2  0
 32 33  1  0
 33 34  2  0
 34 35  1  0
 35 36  1  0
 36 37  2  0
 37 38  1  0
 38 39  2  0
 39 40  1  0
 40 41  2  0
 35 42  2  0
 29  2  1  0
 42 31  1  0
 27  9  1  0
 41 36  1  0
 21 14  1  0
M  END
$$$$
