
     RDKit          3D

 31 33  0  0  0  0  0  0  0  0999 V2000
  -21.9461   16.4047  -34.1453 C   0  0  0  0  0  0  0  0  0  0  0  0
  -21.5782   17.4272  -35.2115 C   0  0  0  0  0  0  0  0  0  0  0  0
  -20.5585   16.9606  -36.0495 O   0  0  0  0  0  0  0  0  0  0  0  0
  -20.0843   17.6617  -37.1159 C   0  0  0  0  0  0  0  0  0  0  0  0
  -20.5974   17.5660  -38.2416 O   0  0  0  0  0  0  0  0  0  0  0  0
  -18.8703   18.6184  -36.9639 C   0  0  2  0  0  0  0  0  0  0  0  0
  -18.0146   17.9045  -35.9716 C   0  0  0  0  0  0  0  0  0  0  0  0
  -16.6335   18.4425  -35.8716 C   0  0  0  0  0  0  0  0  0  0  0  0
  -15.7801   17.5667  -34.9808 C   0  0  0  0  0  0  0  0  0  0  0  0
  -15.4983   17.9342  -33.6877 C   0  0  0  0  0  0  0  0  0  0  0  0
  -14.7287   17.1527  -32.8721 C   0  0  0  0  0  0  0  0  0  0  0  0
  -14.2245   15.9696  -33.3590 C   0  0  0  0  0  0  0  0  0  0  0  0
  -14.4854   15.5692  -34.6479 C   0  0  0  0  0  0  0  0  0  0  0  0
  -15.2681   16.3823  -35.4494 C   0  0  0  0  0  0  0  0  0  0  0  0
  -19.3766   19.8327  -36.5787 N   0  0  0  0  0  0  0  0  0  0  0  0
  -20.1736   20.7261  -37.2621 C   0  0  1  0  0  0  0  0  0  0  0  0
  -20.1371   22.1426  -36.7127 C   0  0  0  0  0  0  0  0  0  0  0  0
  -19.5931   20.7832  -38.6918 C   0  0  0  0  0  0  0  0  0  0  0  0
  -18.3541   20.6005  -38.8649 O   0  0  0  0  0  0  0  0  0  0  0  0
  -20.3952   21.0305  -39.8174 N   0  0  0  0  0  0  0  0  0  0  0  0
  -19.9328   21.2017  -41.1735 C   0  0  2  0  0  0  0  0  0  0  0  0
  -19.3325   22.5783  -41.3389 C   0  0  0  0  0  0  0  0  0  0  0  0
  -19.6134   23.5023  -40.5330 O   0  0  0  0  0  0  0  0  0  0  0  0
  -18.4593   22.8908  -42.3636 O   0  0  0  0  0  0  0  0  0  0  0  0
  -21.2408   21.2840  -41.9953 C   0  0  0  0  0  0  0  0  0  0  0  0
  -22.1053   22.0091  -40.9876 C   0  0  1  0  0  0  0  0  0  0  0  0
  -23.5580   21.9514  -41.2882 C   0  0  0  0  0  0  0  0  0  0  0  0
  -24.3087   22.3453  -40.0340 C   0  0  0  0  0  0  0  0  0  0  0  0
  -23.4008   22.8960  -38.9638 C   0  0  0  0  0  0  0  0  0  0  0  0
  -22.3121   21.9325  -38.5694 C   0  0  0  0  0  0  0  0  0  0  0  0
  -21.8425   21.1500  -39.7676 C   0  0  2  0  0  0  0  0  0  0  0  0
  1  2  1  0
  2  3  1  0
  3  4  1  0
  4  5  2  0
  4  6  1  0
  6  7  1  1
  7  8  1  0
  8  9  1  0
  9 10  2  0
 10 11  1  0
 11 12  2  0
 12 13  1  0
 13 14  2  0
  6 15  1  0
 15 16  1  0
 16 17  1  1
 16 18  1  0
 18 19  2  0
 18 20  1  0
 20 21  1  0
 21 22  1  1
 22 23  2  0
 22 24  1  0
 21 25  1  0
 26 25  1  6
 26 27  1  0
 27 28  1  0
 28 29  1  0
 29 30  1  0
 31 30  1  1
 14  9  1  0
 31 20  1  0
 31 26  1  0
M  END
$$$$
