
     RDKit          3D

 31 30  0  0  0  0  0  0  0  0999 V2000
  -13.6607   43.9047  -22.3012 N   0  0  0  0  0  0  0  0  0  0  0  0
  -13.2001   43.4010  -21.0412 C   0  0  0  0  0  0  0  0  0  0  0  0
  -14.2265   43.4936  -19.9769 C   0  0  0  0  0  0  0  0  0  0  0  0
  -15.4532   42.6727  -20.2736 C   0  0  0  0  0  0  0  0  0  0  0  0
  -16.1600   43.0501  -21.5120 C   0  0  0  0  0  0  0  0  0  0  0  0
  -17.4486   42.2152  -21.6465 C   0  0  2  0  0  0  0  0  0  0  0  0
  -17.0627   40.8413  -21.6995 N   0  0  0  0  0  0  0  0  0  0  0  0
  -18.2709   39.9945  -21.7556 C   0  0  1  0  0  0  0  0  0  0  0  0
  -17.7745   38.5744  -22.0559 C   0  0  0  0  0  0  0  0  0  0  0  0
  -18.9008   37.6225  -22.1476 C   0  0  0  0  0  0  0  0  0  0  0  0
  -18.4742   36.2319  -22.4606 C   0  0  0  0  0  0  0  0  0  0  0  0
  -18.3914   35.8637  -23.7841 C   0  0  0  0  0  0  0  0  0  0  0  0
  -17.9962   34.5696  -24.1496 C   0  0  0  0  0  0  0  0  0  0  0  0
  -17.6816   33.6380  -23.1765 C   0  0  0  0  0  0  0  0  0  0  0  0
  -17.7632   34.0020  -21.8614 C   0  0  0  0  0  0  0  0  0  0  0  0
  -18.1557   35.2859  -21.5150 C   0  0  0  0  0  0  0  0  0  0  0  0
  -18.9429   40.0219  -20.4285 C   0  0  0  0  0  0  0  0  0  0  0  0
  -18.3653   40.6045  -19.4622 O   0  0  0  0  0  0  0  0  0  0  0  0
  -20.1627   39.4489  -20.1937 O   0  0  0  0  0  0  0  0  0  0  0  0
  -18.0919   42.6549  -22.9359 C   0  0  0  0  0  0  0  0  0  0  0  0
  -17.9808   41.8650  -23.9161 O   0  0  0  0  0  0  0  0  0  0  0  0
  -18.7857   43.8610  -23.0804 N   0  0  0  0  0  0  0  0  0  0  0  0
  -19.0202   44.8645  -22.0750 C   0  0  0  0  0  0  0  0  0  0  0  0
  -20.1674   45.6992  -22.5843 C   0  0  0  0  0  0  0  0  0  0  0  0
  -20.7029   44.9161  -23.7473 C   0  0  0  0  0  0  0  0  0  0  0  0
  -19.4214   44.2961  -24.3264 C   0  0  1  0  0  0  0  0  0  0  0  0
  -18.6247   45.3437  -25.0015 C   0  0  0  0  0  0  0  0  0  0  0  0
  -17.5439   45.7937  -24.5537 O   0  0  0  0  0  0  0  0  0  0  0  0
  -19.0907   45.8603  -26.1924 O   0  0  0  0  0  0  0  0  0  0  0  0
  -17.2921   41.1948  -22.0868 O   0  0  0  0  0  0  0  0  0  0  0  0
  -17.2787   41.1924  -22.0789 O   0  0  0  0  0  0  0  0  0  0  0  0
  1  2  1  0
  2  3  1  0
  3  4  1  0
  4  5  1  0
  6  5  1  6
  6  7  1  0
  7  8  1  0
  8  9  1  1
  9 10  1  0
 10 11  1  0
 11 12  2  0
 12 13  1  0
 13 14  2  0
 14 15  1  0
 15 16  2  0
  8 17  1  0
 17 18  2  0
 17 19  1  0
  6 20  1  0
 20 21  2  0
 20 22  1  0
 22 23  1  0
 23 24  1  0
 24 25  1  0
 25 26  1  0
 26 27  1  1
 27 28  2  0
 27 29  1  0
 16 11  1  0
 26 22  1  0
M  END
$$$$
