
     RDKit          3D

  9  9  0  0  0  0  0  0  0  0999 V2000
  -15.8449   18.1172  -36.0765 N   0  0  0  0  0  0  0  0  0  0  0  0
  -15.2493   17.7133  -35.1705 C   0  0  0  0  0  0  0  0  0  0  0  0
  -14.4816   17.2210  -34.0051 C   0  0  0  0  0  0  0  0  0  0  0  0
  -15.3684   17.0849  -32.8078 C   0  0  0  0  0  0  0  0  0  0  0  0
  -15.1562   17.9875  -31.7771 C   0  0  0  0  0  0  0  0  0  0  0  0
  -15.9800   17.8531  -30.6767 C   0  0  0  0  0  0  0  0  0  0  0  0
  -16.9506   16.8787  -30.6161 C   0  0  0  0  0  0  0  0  0  0  0  0
  -17.1358   15.9873  -31.6725 C   0  0  0  0  0  0  0  0  0  0  0  0
  -16.3221   16.1367  -32.7339 N   0  0  0  0  0  0  0  0  0  0  0  0
  1  2  3  0
  2  3  1  0
  3  4  1  0
  4  5  2  0
  5  6  1  0
  6  7  2  0
  7  8  1  0
  8  9  2  0
  9  4  1  0
M  END
$$$$
