
     RDKit          3D

 40 42  0  0  0  0  0  0  0  0999 V2000
  -23.1167   17.1189  -37.7183 C   0  0  0  0  0  0  0  0  0  0  0  0
  -22.9312   15.9292  -38.6257 C   0  0  0  0  0  0  0  0  0  0  0  0
  -23.7252   14.7866  -38.0407 C   0  0  0  0  0  0  0  0  0  0  0  0
  -23.5619   16.2760  -39.9571 C   0  0  0  0  0  0  0  0  0  0  0  0
  -21.4618   15.5670  -38.7925 C   0  0  1  0  0  0  0  0  0  0  0  0
  -20.6555   16.6707  -39.3197 C   0  0  0  0  0  0  0  0  0  0  0  0
  -19.7113   17.3578  -38.4181 C   0  0  0  0  0  0  0  0  0  0  0  0
  -19.2094   16.5765  -37.2615 C   0  0  2  0  0  0  0  0  0  0  0  0
  -17.7881   16.7579  -37.0465 N   0  0  0  0  0  0  0  0  0  0  0  0
  -16.8996   16.6095  -38.1756 C   0  0  0  0  0  0  0  0  0  0  0  0
  -16.8297   17.7844  -39.0526 C   0  0  0  0  0  0  0  0  0  0  0  0
  -17.4408   18.9763  -38.7567 C   0  0  0  0  0  0  0  0  0  0  0  0
  -17.3333   20.0565  -39.6395 C   0  0  0  0  0  0  0  0  0  0  0  0
  -16.6310   19.9855  -40.8162 C   0  0  0  0  0  0  0  0  0  0  0  0
  -16.5265   21.1169  -41.7270 C   0  0  0  0  0  0  0  0  0  0  0  0
  -16.2135   20.8634  -42.9267 O   0  0  0  0  0  0  0  0  0  0  0  0
  -16.7534   22.4395  -41.3342 N   0  0  0  0  0  0  0  0  0  0  0  0
  -16.6990   23.5081  -42.3043 C   0  0  0  0  0  0  0  0  0  0  0  0
  -18.0370   23.7370  -42.9216 C   0  0  0  0  0  0  0  0  0  0  0  0
  -19.0184   24.2087  -41.8951 C   0  0  0  0  0  0  0  0  0  0  0  0
  -18.6816   24.4352  -40.7139 O   0  0  0  0  0  0  0  0  0  0  0  0
  -20.3315   24.3910  -42.2932 O   0  0  0  0  0  0  0  0  0  0  0  0
  -16.0168   18.7846  -41.1116 C   0  0  0  0  0  0  0  0  0  0  0  0
  -16.1189   17.7318  -40.2559 C   0  0  0  0  0  0  0  0  0  0  0  0
  -17.2912   17.0940  -35.7574 C   0  0  0  0  0  0  0  0  0  0  0  0
  -18.0673   17.6018  -34.8730 O   0  0  0  0  0  0  0  0  0  0  0  0
  -15.9499   16.9064  -35.3448 N   0  0  0  0  0  0  0  0  0  0  0  0
  -15.6399   16.7252  -33.9702 C   0  0  0  0  0  0  0  0  0  0  0  0
  -16.0558   15.5408  -33.3877 C   0  0  0  0  0  0  0  0  0  0  0  0
  -15.8005   15.2692  -32.0480 C   0  0  0  0  0  0  0  0  0  0  0  0
  -15.1205   16.2019  -31.2935 C   0  0  0  0  0  0  0  0  0  0  0  0
  -14.8526   15.9557  -29.9535 O   0  0  0  0  0  0  0  0  0  0  0  0
  -14.2294   14.6964  -29.6665 C   0  0  0  0  0  0  0  0  0  0  0  0
  -15.1439   13.7298  -30.0394 F   0  0  0  0  0  0  0  0  0  0  0  0
  -13.9219   14.5860  -28.3317 F   0  0  0  0  0  0  0  0  0  0  0  0
  -13.0629   14.5954  -30.3979 F   0  0  0  0  0  0  0  0  0  0  0  0
  -14.7226   17.3609  -31.8945 C   0  0  0  0  0  0  0  0  0  0  0  0
  -14.9611   17.6583  -33.2204 C   0  0  0  0  0  0  0  0  0  0  0  0
  -19.4828   15.0870  -37.4681 C   0  0  0  0  0  0  0  0  0  0  0  0
  -21.0157   15.0096  -37.4630 C   0  0  0  0  0  0  0  0  0  0  0  0
  1  2  1  0
  2  3  1  0
  2  4  1  0
  5  2  1  1
  5  6  1  0
  6  7  1  0
  7  8  1  0
  8  9  1  6
  9 10  1  0
 10 11  1  0
 11 12  2  0
 12 13  1  0
 13 14  2  0
 14 15  1  0
 15 16  2  0
 15 17  1  0
 17 18  1  0
 18 19  1  0
 19 20  1  0
 20 21  2  0
 20 22  1  0
 14 23  1  0
 23 24  2  0
  9 25  1  0
 25 26  2  0
 25 27  1  0
 27 28  1  0
 28 29  2  0
 29 30  1  0
 30 31  2  0
 31 32  1  0
 32 33  1  0
 33 34  1  0
 33 35  1  0
 33 36  1  0
 31 37  1  0
 37 38  2  0
  8 39  1  0
 39 40  1  0
 40  5  1  0
 24 11  1  0
 38 28  1  0
M  END
$$$$
