
     RDKit          3D

 20 21  0  0  0  0  0  0  0  0999 V2000
  -19.5378   42.4587  -24.6708 C   0  0  0  0  0  0  0  0  0  0  0  0
  -18.1191   42.3899  -24.1576 C   0  0  1  0  0  0  0  0  0  0  0  0
  -17.9757   42.9026  -22.7658 C   0  0  0  0  0  0  0  0  0  0  0  0
  -18.5457   42.0272  -21.7088 C   0  0  2  0  0  0  0  0  0  0  0  0
  -17.7282   42.2629  -20.4315 C   0  0  0  0  0  0  0  0  0  0  0  0
  -18.5890   40.5978  -22.0411 C   0  0  0  0  0  0  0  0  0  0  0  0
  -18.8400   39.8048  -21.1516 O   0  0  0  0  0  0  0  0  0  0  0  0
  -18.3459   40.0486  -23.3973 C   0  0  2  0  0  0  0  0  0  0  0  0
  -17.7446   38.6889  -23.3871 C   0  0  2  0  0  0  0  0  0  0  0  0
  -17.0856   38.4617  -24.6062 O   0  0  0  0  0  0  0  0  0  0  0  0
  -18.7642   37.5851  -23.2390 C   0  0  0  0  0  0  0  0  0  0  0  0
  -18.2099   36.2338  -23.5448 C   0  0  0  0  0  0  0  0  0  0  0  0
  -17.3079   35.6761  -22.5035 C   0  0  0  0  0  0  0  0  0  0  0  0
  -18.0208   35.1348  -21.3246 C   0  0  0  0  0  0  0  0  0  0  0  0
  -17.3203   34.7776  -20.3424 O   0  0  0  0  0  0  0  0  0  0  0  0
  -19.4288   35.0018  -21.2497 N   0  0  0  0  0  0  0  0  0  0  0  0
  -20.1759   35.2379  -22.4416 C   0  0  0  0  0  0  0  0  0  0  0  0
  -21.4014   35.3906  -22.3822 O   0  0  0  0  0  0  0  0  0  0  0  0
  -19.3868   35.2836  -23.7170 C   0  0  0  0  0  0  0  0  0  0  0  0
  -17.5412   40.9963  -24.2554 C   0  0  0  0  0  0  0  0  0  0  0  0
  2  1  1  1
  2  3  1  0
  3  4  1  0
  4  5  1  1
  4  6  1  0
  6  7  2  0
  6  8  1  0
  8  9  1  0
  9 10  1  6
  9 11  1  0
 11 12  1  0
 12 13  1  0
 13 14  1  0
 14 15  2  0
 14 16  1  0
 16 17  1  0
 17 18  2  0
 17 19  1  0
  8 20  1  1
 20  2  1  0
 19 12  1  0
M  END
$$$$
