
     RDKit          3D

 45 47  0  0  0  0  0  0  0  0999 V2000
  -20.4549   19.5212  -34.5975 C   0  0  0  0  0  0  0  0  0  0  0  0
  -20.7381   20.7223  -33.9553 O   0  0  0  0  0  0  0  0  0  0  0  0
  -21.6982   20.5692  -32.9569 C   0  0  2  0  0  0  0  0  0  0  0  0
  -22.8707   21.4437  -33.3367 C   0  0  1  0  0  0  0  0  0  0  0  0
  -23.8447   20.5753  -33.9311 O   0  0  0  0  0  0  0  0  0  0  0  0
  -24.3569   20.7333  -35.1869 C   0  0  0  0  0  0  0  0  0  0  0  0
  -25.3185   19.7913  -35.6415 N   0  0  0  0  0  0  0  0  0  0  0  0
  -23.9542   21.7019  -35.8784 O   0  0  0  0  0  0  0  0  0  0  0  0
  -23.5566   21.9876  -32.0830 C   0  0  1  0  0  0  0  0  0  0  0  0
  -24.9180   22.1044  -32.3448 O   0  0  0  0  0  0  0  0  0  0  0  0
  -23.3124   20.8985  -31.0205 C   0  0  2  0  0  0  0  0  0  0  0  0
  -24.1339   21.0425  -29.9294 O   0  0  0  0  0  0  0  0  0  0  0  0
  -25.0461   20.1400  -29.5032 C   0  0  0  0  0  0  0  0  0  0  0  0
  -25.2645   18.9505  -30.1271 C   0  0  0  0  0  0  0  0  0  0  0  0
  -26.2289   18.0618  -29.6272 C   0  0  0  0  0  0  0  0  0  0  0  0
  -26.9759   18.3432  -28.5167 C   0  0  0  0  0  0  0  0  0  0  0  0
  -27.9163   17.4596  -28.0412 C   0  0  0  0  0  0  0  0  0  0  0  0
  -28.1427   16.2496  -28.6712 O   0  0  0  0  0  0  0  0  0  0  0  0
  -28.6496   17.7851  -26.9133 C   0  0  0  0  0  0  0  0  0  0  0  0
  -29.6368   16.9040  -26.3790 N   0  0  0  0  0  0  0  0  0  0  0  0
  -30.9918   16.9339  -26.7537 C   0  0  0  0  0  0  0  0  0  0  0  0
  -31.3777   17.7702  -27.5993 O   0  0  0  0  0  0  0  0  0  0  0  0
  -31.9691   16.0078  -26.1779 C   0  0  0  0  0  0  0  0  0  0  0  0
  -33.3144   16.0939  -26.5536 C   0  0  0  0  0  0  0  0  0  0  0  0
  -34.2453   15.2325  -26.0250 C   0  0  0  0  0  0  0  0  0  0  0  0
  -33.8617   14.2753  -25.1196 C   0  0  0  0  0  0  0  0  0  0  0  0
  -34.8554   13.4262  -24.6155 O   0  0  0  0  0  1  0  0  0  0  0  0
  -32.5497   14.1439  -24.7127 C   0  0  0  0  0  0  0  0  0  0  0  0
  -32.1239   13.1108  -23.7327 C   0  0  0  0  0  0  0  0  0  0  0  0
  -32.0556   11.7653  -24.3288 C   0  0  0  0  0  0  0  0  0  0  0  0
  -30.9206   11.0996  -24.3533 C   0  0  0  0  0  0  0  0  0  0  0  0
  -29.6933   11.6905  -23.7830 C   0  0  0  0  0  0  0  0  0  0  0  0
  -30.8779    9.7503  -24.9577 C   0  0  0  0  0  0  0  0  0  0  0  0
  -31.6335   15.0334  -25.2686 C   0  0  0  0  0  0  0  0  0  0  0  0
  -28.3821   19.0054  -26.3259 C   0  0  0  0  0  0  0  0  0  0  0  0
  -29.0474   19.3282  -25.2823 O   0  0  0  0  0  0  0  0  0  0  0  0
  -27.4758   19.8096  -26.8194 O   0  0  0  0  0  0  0  0  0  0  0  0
  -26.7540   19.5536  -27.8814 C   0  0  0  0  0  0  0  0  0  0  0  0
  -25.8081   20.4304  -28.3680 C   0  0  0  0  0  0  0  0  0  0  0  0
  -25.5979   21.7235  -27.6589 C   0  0  0  0  0  0  0  0  0  0  0  0
  -21.9922   21.1041  -30.6193 O   0  0  0  0  0  0  0  0  0  0  0  0
  -21.0877   20.9051  -31.6465 C   0  0  0  0  0  0  0  0  0  0  0  0
  -20.1720   22.1082  -31.7049 C   0  0  0  0  0  0  0  0  0  0  0  0
  -20.2110   19.7222  -31.2253 C   0  0  0  0  0  0  0  0  0  0  0  0
  -26.6610   17.8063  -28.9904 Na  0  0  0  0  0 15  0  0  0  0  0  0
  1  2  1  0
  3  2  1  6
  3  4  1  0
  4  5  1  1
  5  6  1  0
  6  7  1  0
  6  8  2  0
  4  9  1  0
  9 10  1  6
  9 11  1  0
 11 12  1  1
 12 13  1  0
 13 14  2  0
 14 15  1  0
 15 16  2  0
 16 17  1  0
 17 18  1  0
 17 19  2  0
 19 20  1  0
 20 21  1  0
 21 22  2  0
 21 23  1  0
 23 24  2  0
 24 25  1  0
 25 26  2  0
 26 27  1  0
 26 28  1  0
 28 29  1  0
 29 30  1  0
 30 31  2  3
 31 32  1  0
 31 33  1  0
 28 34  2  0
 19 35  1  0
 35 36  2  0
 35 37  1  0
 37 38  1  0
 38 39  2  0
 39 40  1  0
 11 41  1  0
 41 42  1  0
 42 43  1  0
 42 44  1  0
 42  3  1  0
 39 13  1  0
 38 16  1  0
 34 23  1  0
M  CHG  2  27  -1  45   1
M  END
$$$$
