
     RDKit          3D

 25 27  0  0  0  0  0  0  0  0999 V2000
  -48.8816   13.9126  -18.9897 C   0  0  0  0  0  0  0  0  0  0  0  0
  -47.7262   13.0245  -19.1386 N   0  0  0  0  0  0  0  0  0  0  0  0
  -47.7818   11.9463  -20.0442 C   0  0  0  0  0  0  0  0  0  0  0  0
  -48.6962   11.8268  -20.8815 O   0  0  0  0  0  0  0  0  0  0  0  0
  -46.7234   10.8940  -20.0251 C   0  0  0  0  0  0  0  0  0  0  0  0
  -45.5487   11.3633  -19.4090 O   0  0  0  0  0  0  0  0  0  0  0  0
  -45.4502   12.3965  -18.5187 C   0  0  0  0  0  0  0  0  0  0  0  0
  -44.2851   12.5650  -17.8026 C   0  0  0  0  0  0  0  0  0  0  0  0
  -43.1043   11.7275  -17.8980 C   0  0  0  0  0  0  0  0  0  0  0  0
  -42.1149   12.0483  -17.1456 O   0  0  0  0  0  0  0  0  0  0  0  0
  -42.9049   10.6142  -18.7051 N   0  0  0  0  0  0  0  0  0  0  0  0
  -41.6556    9.8436  -18.7121 C   0  0  0  0  0  0  0  0  0  0  0  0
  -41.8759    8.3948  -18.4263 C   0  0  0  0  0  0  0  0  0  0  0  0
  -41.0254    7.5722  -19.2807 N   0  0  0  0  0  0  0  0  0  0  0  0
  -41.6282    7.5954  -20.6035 C   0  0  0  0  0  0  0  0  0  0  0  0
  -41.7473    9.0362  -21.0162 C   0  0  0  0  0  0  0  0  0  0  0  0
  -41.0146    9.9601  -20.0811 C   0  0  0  0  0  0  0  0  0  0  0  0
  -39.5817    9.4528  -19.9196 C   0  0  0  0  0  0  0  0  0  0  0  0
  -39.6707    8.0771  -19.3172 C   0  0  0  0  0  0  0  0  0  0  0  0
  -44.3015   13.6552  -16.9230 C   0  0  0  0  0  0  0  0  0  0  0  0
  -45.3708   14.4916  -16.7733 C   0  0  0  0  0  0  0  0  0  0  0  0
  -45.3512   15.8464  -15.6610 Cl  0  0  0  0  0  0  0  0  0  0  0  0
  -46.5086   14.2918  -17.5015 C   0  0  0  0  0  0  0  0  0  0  0  0
  -46.5493   13.2433  -18.3755 C   0  0  0  0  0  0  0  0  0  0  0  0
  -44.3909   11.2098  -18.9544 Cl  0  0  0  0  0  0  0  0  0  0  0  0
  1  2  1  0
  2  3  1  0
  3  4  2  0
  3  5  1  0
  5  6  1  0
  6  7  1  0
  7  8  2  0
  8  9  1  0
  9 10  2  0
  9 11  1  0
 11 12  1  0
 12 13  1  0
 13 14  1  0
 14 15  1  0
 15 16  1  0
 16 17  1  0
 17 18  1  0
 18 19  1  0
  8 20  1  0
 20 21  2  0
 21 22  1  0
 21 23  1  0
 23 24  2  0
 24  2  1  0
 24  7  1  0
 17 12  1  0
 19 14  1  0
M  END
$$$$
