
     RDKit          3D

 33 37  0  0  0  0  0  0  0  0999 V2000
  -30.2760   23.8215  -30.5674 O   0  0  0  0  0  0  0  0  0  0  0  0
  -29.8285   22.7926  -30.0340 C   0  0  0  0  0  0  0  0  0  0  0  0
  -28.7444   22.0330  -30.7389 C   0  0  0  0  0  0  0  0  0  0  0  0
  -28.4890   20.7137  -30.0338 C   0  0  0  0  0  0  0  0  0  0  0  0
  -28.1922   21.0216  -28.5820 C   0  0  2  0  0  0  0  0  0  0  0  0
  -27.6963   19.8225  -27.9024 N   0  0  0  0  0  0  0  0  0  0  0  0
  -28.4371   18.7137  -27.4063 C   0  0  0  0  0  0  0  0  0  0  0  0
  -27.4228   17.8093  -26.8231 C   0  0  0  0  0  0  0  0  0  0  0  0
  -27.5509   16.5490  -26.1805 C   0  0  0  0  0  0  0  0  0  0  0  0
  -28.7892   16.0562  -26.0591 O   0  0  0  0  0  0  0  0  0  0  0  0
  -29.4756   15.3793  -25.1337 C   0  0  0  0  0  0  0  0  0  0  0  0
  -30.9462   15.4412  -25.1201 C   0  0  0  0  0  0  0  0  0  0  0  0
  -31.7177   14.2918  -25.3066 C   0  0  0  0  0  0  0  0  0  0  0  0
  -33.0936   14.3300  -25.3365 C   0  0  0  0  0  0  0  0  0  0  0  0
  -33.7679   15.5217  -25.1810 C   0  0  0  0  0  0  0  0  0  0  0  0
  -35.2584   15.5834  -25.2100 C   0  0  0  0  0  0  0  0  0  0  0  0
  -35.7445   15.2224  -23.9197 N   0  0  0  0  0  0  0  0  0  0  0  0
  -36.4575   16.2809  -23.2522 C   0  0  0  0  0  0  0  0  0  0  0  0
  -37.0551   15.8661  -21.9503 C   0  0  0  0  0  0  0  0  0  0  0  0
  -37.9062   14.7905  -22.1932 O   0  0  0  0  0  0  0  0  0  0  0  0
  -37.2246   13.7024  -22.6667 C   0  0  0  0  0  0  0  0  0  0  0  0
  -36.3529   13.9398  -23.8416 C   0  0  0  0  0  0  0  0  0  0  0  0
  -32.9932   16.6624  -24.9959 C   0  0  0  0  0  0  0  0  0  0  0  0
  -31.6197   16.6148  -24.9677 C   0  0  0  0  0  0  0  0  0  0  0  0
  -26.4051   15.9471  -25.7398 C   0  0  0  0  0  0  0  0  0  0  0  0
  -25.1314   16.4985  -25.8867 C   0  0  0  0  0  0  0  0  0  0  0  0
  -25.0206   17.7018  -26.5017 C   0  0  0  0  0  0  0  0  0  0  0  0
  -26.1786   18.3376  -26.9609 C   0  0  0  0  0  0  0  0  0  0  0  0
  -26.3222   19.6226  -27.6464 C   0  0  0  0  0  0  0  0  0  0  0  0
  -25.3518   20.4060  -27.9474 O   0  0  0  0  0  0  0  0  0  0  0  0
  -29.4559   21.4974  -27.9683 C   0  0  0  0  0  0  0  0  0  0  0  0
  -29.8237   21.2396  -26.7949 O   0  0  0  0  0  0  0  0  0  0  0  0
  -30.3017   22.3025  -28.7795 N   0  0  0  0  0  0  0  0  0  0  0  0
  1  2  2  0
  2  3  1  0
  3  4  1  0
  4  5  1  0
  5  6  1  1
  6  7  1  0
  7  8  1  0
  8  9  2  0
  9 10  1  0
 10 11  1  0
 11 12  1  0
 12 13  2  0
 13 14  1  0
 14 15  2  0
 15 16  1  0
 16 17  1  0
 17 18  1  0
 18 19  1  0
 19 20  1  0
 20 21  1  0
 21 22  1  0
 15 23  1  0
 23 24  2  0
  9 25  1  0
 25 26  2  0
 26 27  1  0
 27 28  2  0
 28 29  1  0
 29 30  2  0
  5 31  1  0
 31 32  2  0
 31 33  1  0
 33  2  1  0
 29  6  1  0
 28  8  1  0
 24 12  1  0
 22 17  1  0
M  END
$$$$
