
     RDKit          3D

 13 14  0  0  0  0  0  0  0  0999 V2000
  -20.6855   39.0465  -23.2877 O   0  0  0  0  0  0  0  0  0  0  0  0
  -19.6707   38.5918  -22.7084 C   0  0  0  0  0  0  0  0  0  0  0  0
  -19.3484   38.6448  -21.3280 N   0  0  0  0  0  0  0  0  0  0  0  0
  -18.0959   37.9956  -21.1460 C   0  0  0  0  0  0  0  0  0  0  0  0
  -17.3604   37.9837  -20.1253 O   0  0  0  0  0  0  0  0  0  0  0  0
  -17.7372   37.2767  -22.4120 C   0  0  0  0  0  0  0  0  0  0  0  0
  -18.0535   35.8304  -22.2441 C   0  0  0  0  0  0  0  0  0  0  0  0
  -19.3743   35.4626  -22.0404 C   0  0  0  0  0  0  0  0  0  0  0  0
  -19.7205   34.1378  -21.8792 C   0  0  0  0  0  0  0  0  0  0  0  0
  -18.7400   33.1482  -21.9196 C   0  0  0  0  0  0  0  0  0  0  0  0
  -17.4188   33.4955  -22.1216 C   0  0  0  0  0  0  0  0  0  0  0  0
  -17.1190   34.8354  -22.2781 C   0  0  0  0  0  0  0  0  0  0  0  0
  -18.6124   37.9090  -23.3673 N   0  0  0  0  0  0  0  0  0  0  0  0
  1  2  2  0
  2  3  1  0
  3  4  1  0
  4  5  2  0
  4  6  1  0
  6  7  1  0
  7  8  2  0
  8  9  1  0
  9 10  2  0
 10 11  1  0
 11 12  2  0
  6 13  1  0
 13  2  1  0
 12  7  1  0
M  END
$$$$
