
     RDKit          3D

 16 17  0  0  0  0  0  0  0  0999 V2000
  -18.2869   15.9368  -35.3980 C   0  0  0  0  0  0  0  0  0  0  0  0
  -18.5645   15.7884  -33.9149 C   0  0  0  0  0  0  0  0  0  0  0  0
  -19.9408   16.1810  -33.5643 C   0  0  0  0  0  0  0  0  0  0  0  0
  -20.2807   17.5037  -33.4874 C   0  0  0  0  0  0  0  0  0  0  0  0
  -21.5500   17.9143  -33.1566 C   0  0  0  0  0  0  0  0  0  0  0  0
  -22.5154   16.9627  -32.8928 C   0  0  0  0  0  0  0  0  0  0  0  0
  -22.1601   15.6340  -32.9735 C   0  0  0  0  0  0  0  0  0  0  0  0
  -20.8778   15.2203  -33.3076 C   0  0  0  0  0  0  0  0  0  0  0  0
  -17.5494   16.4235  -33.0698 C   0  0  0  0  0  0  0  0  0  0  0  0
  -16.6239   17.3053  -33.6111 C   0  0  0  0  0  0  0  0  0  0  0  0
  -15.6635   17.9078  -32.8277 C   0  0  0  0  0  0  0  0  0  0  0  0
  -15.5790   17.6621  -31.4731 C   0  0  0  0  0  0  0  0  0  0  0  0
  -14.6205   18.2633  -30.6909 O   0  0  0  0  0  0  0  0  0  0  0  0
  -16.4853   16.7925  -30.9156 C   0  0  0  0  0  0  0  0  0  0  0  0
  -17.4587   16.1841  -31.7197 C   0  0  0  0  0  0  0  0  0  0  0  0
  -18.3792   15.3008  -31.1540 O   0  0  0  0  0  0  0  0  0  0  0  0
  1  2  1  0
  2  3  1  0
  3  4  2  0
  4  5  1  0
  5  6  2  0
  6  7  1  0
  7  8  2  0
  2  9  1  0
  9 10  2  0
 10 11  1  0
 11 12  2  0
 12 13  1  0
 12 14  1  0
 14 15  2  0
 15 16  1  0
  8  3  1  0
 15  9  1  0
M  END
$$$$
