
     RDKit          3D

 32 38  0  0  0  0  0  0  0  0999 V2000
   -9.3642   19.1177  -43.0962 Cl  0  0  0  0  0  0  0  0  0  0  0  0
  -14.7066   19.2666  -41.0678 O   0  0  0  0  0  0  0  0  0  0  0  0
  -13.3405   19.0193  -41.1048 C   0  0  0  0  0  0  0  0  0  0  0  0
  -12.5787   18.9581  -39.9350 C   0  0  0  0  0  0  0  0  0  0  0  0
  -11.2008   18.7088  -39.9881 C   0  0  0  0  0  0  0  0  0  0  0  0
  -10.6101   18.5257  -41.2075 C   0  0  0  0  0  0  0  0  0  0  0  0
  -11.4074   18.5968  -42.3163 C   0  0  0  0  0  0  0  0  0  0  0  0
  -12.7365   18.8325  -42.3467 C   0  0  0  0  0  0  0  0  0  0  0  0
  -13.1286   18.8198  -43.6750 O   0  0  0  0  0  0  0  0  0  0  0  0
  -11.9860   18.8469  -44.5205 C   0  0  1  0  0  0  0  0  0  0  0  0
  -11.8117   20.2179  -45.0553 C   0  0  0  0  0  0  0  0  0  0  0  0
  -12.4091   20.8310  -46.0913 N   0  0  0  0  0  0  0  0  0  0  0  0
  -11.9343   22.0842  -46.2346 C   0  0  0  0  0  0  0  0  0  0  0  0
  -12.1821   23.1208  -47.1047 C   0  0  0  0  0  0  0  0  0  0  0  0
  -11.5383   24.3318  -47.0339 C   0  0  0  0  0  0  0  0  0  0  0  0
  -10.5815   24.5561  -46.0443 C   0  0  0  0  0  0  0  0  0  0  0  0
  -10.3272   23.5271  -45.1709 C   0  0  0  0  0  0  0  0  0  0  0  0
  -10.9823   22.3098  -45.2516 C   0  0  0  0  0  0  0  0  0  0  0  0
  -10.9309   21.1346  -44.5390 C   0  0  0  0  0  0  0  0  0  0  0  0
  -10.1111   20.7056  -43.3534 C   0  0  0  0  0  0  0  0  0  0  0  0
   -9.6455   19.3323  -43.6748 C   0  0  1  0  0  0  0  0  0  0  0  0
   -9.0845   19.3140  -44.9490 O   0  0  0  0  0  0  0  0  0  0  0  0
   -8.6595   18.7219  -42.7309 C   0  0  1  0  0  0  0  0  0  0  0  0
   -9.1883   18.2839  -41.3979 C   0  0  0  0  0  0  0  0  0  0  0  0
   -8.0580   17.6357  -43.4591 N   0  0  0  0  0  0  0  0  0  0  0  0
   -6.8476   17.1243  -42.9377 C   0  0  0  0  0  0  0  0  0  0  0  0
   -5.7089   18.1425  -43.0560 C   0  0  0  0  0  0  0  0  0  0  0  0
   -4.3818   17.7059  -42.5441 C   0  0  0  0  0  0  0  0  0  0  0  0
   -5.1663   18.7229  -41.7850 C   0  0  0  0  0  0  0  0  0  0  0  0
   -8.9711   16.7202  -44.0437 C   0  0  0  0  0  0  0  0  0  0  0  0
  -10.4280   16.9764  -43.8205 C   0  0  0  0  0  0  0  0  0  0  0  0
  -10.8360   18.3947  -43.6954 C   0  0  1  0  0  0  0  0  0  0  0  0
  2  3  1  0
  3  4  2  0
  4  5  1  0
  5  6  2  0
  6  7  1  0
  7  8  2  0
  8  9  1  0
 10  9  1  1
 10 11  1  0
 11 12  1  0
 12 13  1  0
 13 14  2  0
 14 15  1  0
 15 16  2  0
 16 17  1  0
 17 18  2  0
 18 19  1  0
 19 20  1  0
 20 21  1  0
 21 22  1  6
 21 23  1  0
 23 24  1  1
 23 25  1  0
 25 26  1  0
 26 27  1  0
 27 28  1  0
 28 29  1  0
 25 30  1  0
 30 31  1  0
 32 31  1  6
  8  3  1  0
 32 10  1  0
 24  6  1  0
 29 27  1  0
 32  7  1  0
 19 11  2  0
 32 21  1  0
 18 13  1  0
M  END
$$$$
