
     RDKit          3D

 17 18  0  0  0  0  0  0  0  0999 V2000
  -28.1287   21.0050  -29.3646 Cl  0  0  0  0  0  0  0  0  0  0  0  0
  -30.1850   21.9726  -33.1204 O   0  0  0  0  0  0  0  0  0  0  0  0
  -29.1346   22.4148  -32.6425 C   0  0  0  0  0  0  0  0  0  0  0  0
  -28.4036   23.4386  -33.3455 N   0  0  0  0  0  0  0  0  0  0  0  0
  -27.4936   24.2219  -32.5463 C   0  0  0  0  0  0  0  0  0  0  0  0
  -26.7129   23.4165  -31.5733 C   0  0  0  0  0  0  0  0  0  0  0  0
  -27.4733   22.3867  -30.8395 C   0  0  0  0  0  0  0  0  0  0  0  0
  -27.2361   21.7574  -29.6480 N   0  0  0  0  0  0  0  0  0  0  0  0
  -28.2205   20.8777  -29.4013 C   0  0  0  0  0  0  0  0  0  0  0  0
  -28.2927   20.0284  -28.2165 C   0  0  0  0  0  0  0  0  0  0  0  0
  -27.3191   20.0822  -27.2467 C   0  0  0  0  0  0  0  0  0  0  0  0
  -27.3654   19.2829  -26.1082 C   0  0  0  0  0  0  0  0  0  0  0  0
  -28.3886   18.4256  -25.9366 N   0  0  0  0  0  0  0  0  0  0  0  0
  -29.3596   18.3493  -26.8700 C   0  0  0  0  0  0  0  0  0  0  0  0
  -29.3282   19.1388  -28.0101 C   0  0  0  0  0  0  0  0  0  0  0  0
  -29.1011   20.9512  -30.4597 C   0  0  0  0  0  0  0  0  0  0  0  0
  -28.6422   21.8989  -31.3733 C   0  0  0  0  0  0  0  0  0  0  0  0
  2  3  2  0
  3  4  1  0
  4  5  1  0
  5  6  1  0
  6  7  1  0
  7  8  1  0
  8  9  1  0
  9 10  1  0
 10 11  2  0
 11 12  1  0
 12 13  2  0
 13 14  1  0
 14 15  2  0
  9 16  2  0
 16 17  1  0
 17  3  1  0
 17  7  2  0
 15 10  1  0
M  END
$$$$
