
     RDKit          3D

 23 25  0  0  0  0  0  0  0  0999 V2000
  -17.7820   -2.8153  -31.4100 O   0  0  0  0  0  0  0  0  0  0  0  0
  -18.5359   -1.9294  -31.9444 C   0  0  0  0  0  0  0  0  0  0  0  0
  -19.8581   -1.8246  -31.3861 C   0  0  0  0  0  0  0  0  0  0  0  0
  -20.1201   -1.3081  -30.1173 C   0  0  0  0  0  0  0  0  0  0  0  0
  -21.3901   -1.2256  -29.6056 C   0  0  0  0  0  0  0  0  0  0  0  0
  -22.4770   -1.6484  -30.3159 C   0  0  0  0  0  0  0  0  0  0  0  0
  -24.0854   -1.5339  -29.6411 Cl  0  0  0  0  0  0  0  0  0  0  0  0
  -22.2617   -2.1730  -31.5939 C   0  0  0  0  0  0  0  0  0  0  0  0
  -20.9892   -2.2483  -32.0896 C   0  0  0  0  0  0  0  0  0  0  0  0
  -18.0310   -1.1671  -32.9844 N   0  0  0  0  0  0  0  0  0  0  0  0
  -16.6763   -1.3972  -33.4416 C   0  0  0  0  0  0  0  0  0  0  0  0
  -15.6591   -0.7841  -32.5893 C   0  0  0  0  0  0  0  0  0  0  0  0
  -15.1233   -1.4885  -31.5434 C   0  0  0  0  0  0  0  0  0  0  0  0
  -14.1485   -0.9692  -30.7034 C   0  0  0  0  0  0  0  0  0  0  0  0
  -13.7164    0.3412  -30.9676 C   0  0  0  0  0  0  0  0  0  0  0  0
  -14.2381    1.0590  -32.0050 C   0  0  0  0  0  0  0  0  0  0  0  0
  -15.2114    0.4896  -32.8128 C   0  0  0  0  0  0  0  0  0  0  0  0
  -18.8438   -0.1349  -33.5997 C   0  0  0  0  0  0  0  0  0  0  0  0
  -18.3315    1.2472  -33.4684 C   0  0  0  0  0  0  0  0  0  0  0  0
  -18.4007    2.0212  -34.7367 C   0  0  0  0  0  0  0  0  0  0  0  0
  -19.7396    1.9435  -35.3915 C   0  0  0  0  0  0  0  0  0  0  0  0
  -20.1827    0.5145  -35.5798 C   0  0  0  0  0  0  0  0  0  0  0  0
  -19.0601   -0.4148  -35.0949 C   0  0  0  0  0  0  0  0  0  0  0  0
  1  2  2  0
  2  3  1  0
  3  4  2  0
  4  5  1  0
  5  6  2  0
  6  7  1  0
  6  8  1  0
  8  9  2  0
  2 10  1  0
 10 11  1  0
 11 12  1  0
 12 13  2  0
 13 14  1  0
 14 15  2  0
 15 16  1  0
 16 17  2  0
 10 18  1  0
 18 19  1  0
 19 20  1  0
 20 21  1  0
 21 22  1  0
 22 23  1  0
  9  3  1  0
 17 12  1  0
 23 18  1  0
M  END
$$$$
