
     RDKit          3D

 24 26  0  0  0  0  0  0  0  0999 V2000
  -18.1401   36.0684  -24.6237 C   0  0  0  0  0  0  0  0  0  0  0  0
  -18.7111   36.5789  -23.3205 C   0  0  0  0  0  0  0  0  0  0  0  0
  -19.7712   35.6474  -22.7831 C   0  0  0  0  0  0  0  0  0  0  0  0
  -19.4370   38.2294  -23.6863 S   0  0  0  0  0  0  0  0  0  0  0  0
  -19.1306   38.8228  -22.0015 C   0  0  0  0  0  0  0  0  0  0  0  0
  -18.2781   40.0281  -21.8371 C   0  0  0  0  0  0  0  0  0  0  0  0
  -18.9275   41.2062  -21.3695 N   0  0  0  0  0  0  0  0  0  0  0  0
  -18.3640   42.4924  -21.5454 C   0  0  0  0  0  0  0  0  0  0  0  0
  -17.2785   42.5328  -22.2022 O   0  0  0  0  0  0  0  0  0  0  0  0
  -18.9853   43.7255  -21.0056 C   0  0  0  0  0  0  0  0  0  0  0  0
  -18.1650   44.8392  -21.0117 O   0  0  0  0  0  0  0  0  0  0  0  0
  -18.1692   45.8937  -20.1471 C   0  0  0  0  0  0  0  0  0  0  0  0
  -17.1823   46.8549  -20.2599 C   0  0  0  0  0  0  0  0  0  0  0  0
  -17.1902   47.9080  -19.3953 C   0  0  0  0  0  0  0  0  0  0  0  0
  -18.1342   48.0596  -18.4154 C   0  0  0  0  0  0  0  0  0  0  0  0
  -19.1158   47.1145  -18.2947 C   0  0  0  0  0  0  0  0  0  0  0  0
  -19.1182   46.0330  -19.1735 C   0  0  0  0  0  0  0  0  0  0  0  0
  -17.7116   39.1558  -20.7344 C   0  0  0  0  0  0  0  0  0  0  0  0
  -17.3010   39.3597  -19.5825 O   0  0  0  0  0  0  0  0  0  0  0  0
  -17.8911   38.0984  -21.6463 N   0  0  0  0  0  0  0  0  0  0  0  0
  -17.6601   36.9236  -22.3555 C   0  0  0  0  0  0  0  0  0  0  0  0
  -17.5391   35.7469  -21.4095 C   0  0  0  0  0  0  0  0  0  0  0  0
  -17.7844   35.8248  -20.2005 O   0  0  0  0  0  0  0  0  0  0  0  0
  -17.1292   34.5551  -21.9917 O   0  0  0  0  0  0  0  0  0  0  0  0
  1  2  1  0
  2  3  1  0
  2  4  1  0
  4  5  1  0
  5  6  1  0
  6  7  1  0
  7  8  1  0
  8  9  2  0
  8 10  1  0
 10 11  1  0
 11 12  1  0
 12 13  2  0
 13 14  1  0
 14 15  2  0
 15 16  1  0
 16 17  2  0
  6 18  1  0
 18 19  2  0
 18 20  1  0
 20 21  1  0
 21 22  1  0
 22 23  2  0
 22 24  1  0
 21  2  1  0
 20  5  1  0
 17 12  1  0
M  END
$$$$
