
     RDKit          3D

 29 31  0  0  0  0  0  0  0  0999 V2000
  -16.7800   18.5755  -34.4472 O   0  0  0  0  0  0  0  0  0  0  0  0
  -16.0452   17.9692  -35.2674 C   0  0  0  0  0  0  0  0  0  0  0  0
  -14.8140   17.4009  -34.8375 N   0  0  0  0  0  0  0  0  0  0  0  0
  -14.3315   17.5640  -33.4951 C   0  0  0  0  0  0  0  0  0  0  0  0
  -14.6681   16.4006  -32.6462 C   0  0  0  0  0  0  0  0  0  0  0  0
  -14.0515   15.1859  -32.7379 C   0  0  0  0  0  0  0  0  0  0  0  0
  -14.3617   14.1002  -31.9221 C   0  0  0  0  0  0  0  0  0  0  0  0
  -15.3384   14.2401  -30.9706 C   0  0  0  0  0  0  0  0  0  0  0  0
  -15.9421   15.4339  -30.8857 N   0  0  0  0  0  0  0  0  0  0  0  0
  -15.6613   16.4957  -31.6590 C   0  0  0  0  0  0  0  0  0  0  0  0
  -16.3026   17.7008  -31.5449 O   0  0  0  0  0  0  0  0  0  0  0  0
  -16.6898   18.3900  -30.4138 C   0  0  0  0  0  0  0  0  0  0  0  0
  -16.9287   19.8618  -30.6420 C   0  0  0  0  0  0  0  0  0  0  0  0
  -15.7366   20.4496  -31.0935 F   0  0  0  0  0  0  0  0  0  0  0  0
  -17.2817   20.5194  -29.5108 F   0  0  0  0  0  0  0  0  0  0  0  0
  -17.8997   20.0750  -31.6003 F   0  0  0  0  0  0  0  0  0  0  0  0
  -16.5004   17.8692  -36.6646 C   0  0  0  0  0  0  0  0  0  0  0  0
  -15.6252   17.8940  -37.7173 C   0  0  0  0  0  0  0  0  0  0  0  0
  -16.0676   17.7763  -38.9856 N   0  0  0  0  0  0  0  0  0  0  0  0
  -17.3868   17.6326  -39.2358 C   0  0  0  0  0  0  0  0  0  0  0  0
  -18.3242   17.5998  -38.2290 C   0  0  0  0  0  0  0  0  0  0  0  0
  -19.7419   17.4441  -38.5079 C   0  0  0  0  0  0  0  0  0  0  0  0
  -20.3103   16.1858  -38.4385 C   0  0  0  0  0  0  0  0  0  0  0  0
  -21.6342   15.9645  -38.7105 C   0  0  0  0  0  0  0  0  0  0  0  0
  -22.4741   17.0003  -39.0719 C   0  0  0  0  0  0  0  0  0  0  0  0
  -24.1652   16.6930  -39.4226 Cl  0  0  0  0  0  0  0  0  0  0  0  0
  -21.9250   18.2704  -39.1479 C   0  0  0  0  0  0  0  0  0  0  0  0
  -20.5851   18.4701  -38.8673 C   0  0  0  0  0  0  0  0  0  0  0  0
  -17.8710   17.7197  -36.9364 C   0  0  0  0  0  0  0  0  0  0  0  0
  1  2  2  0
  2  3  1  0
  3  4  1  0
  4  5  1  0
  5  6  2  0
  6  7  1  0
  7  8  2  0
  8  9  1  0
  9 10  2  0
 10 11  1  0
 11 12  1  0
 12 13  1  0
 13 14  1  0
 13 15  1  0
 13 16  1  0
  2 17  1  0
 17 18  2  0
 18 19  1  0
 19 20  2  0
 20 21  1  0
 21 22  1  0
 22 23  2  0
 23 24  1  0
 24 25  2  0
 25 26  1  0
 25 27  1  0
 27 28  2  0
 21 29  2  0
 10  5  1  0
 29 17  1  0
 28 22  1  0
M  END
$$$$
