
     RDKit          3D

 17 19  0  0  0  0  0  0  0  0999 V2000
  -31.9549   20.9393  -30.4751 O   0  0  0  0  0  0  0  0  0  0  0  0
  -30.8295   21.1875  -30.0026 C   0  0  0  0  0  0  0  0  0  0  0  0
  -29.9065   22.0420  -30.7333 C   0  0  0  0  0  0  0  0  0  0  0  0
  -30.3382   22.5486  -31.9486 C   0  0  0  0  0  0  0  0  0  0  0  0
  -31.5931   22.2631  -32.4607 O   0  0  0  0  0  0  0  0  0  0  0  0
  -29.4751   23.3577  -32.6494 C   0  0  0  0  0  0  0  0  0  0  0  0
  -28.2263   23.6473  -32.1493 C   0  0  0  0  0  0  0  0  0  0  0  0
  -27.8312   23.1336  -30.9510 C   0  0  0  0  0  0  0  0  0  0  0  0
  -28.6680   22.3139  -30.2111 C   0  0  0  0  0  0  0  0  0  0  0  0
  -28.2320   21.7591  -28.9095 C   0  0  0  0  0  0  0  0  0  0  0  0
  -29.2145   20.9119  -28.2388 C   0  0  0  0  0  0  0  0  0  0  0  0
  -28.8985   20.3375  -26.9994 C   0  0  0  0  0  0  0  0  0  0  0  0
  -29.7842   19.5417  -26.3397 C   0  0  0  0  0  0  0  0  0  0  0  0
  -31.0333   19.2572  -26.8487 C   0  0  0  0  0  0  0  0  0  0  0  0
  -31.3711   19.8124  -28.0727 C   0  0  0  0  0  0  0  0  0  0  0  0
  -32.6183   19.5306  -28.5848 O   0  0  0  0  0  0  0  0  0  0  0  0
  -30.4566   20.6132  -28.7179 C   0  0  0  0  0  0  0  0  0  0  0  0
  1  2  2  0
  2  3  1  0
  3  4  2  0
  4  5  1  0
  4  6  1  0
  6  7  2  0
  7  8  1  0
  8  9  2  0
  9 10  1  0
 10 11  1  0
 11 12  2  0
 12 13  1  0
 13 14  2  0
 14 15  1  0
 15 16  1  0
 15 17  2  0
 17  2  1  0
  9  3  1  0
 17 11  1  0
M  END
$$$$
