
     RDKit          3D

 36 38  0  0  0  0  0  0  0  0999 V2000
  -20.0798   44.2505  -25.5705 C   0  0  0  0  0  0  0  0  0  0  0  0
  -19.1406   43.3502  -24.8873 C   0  0  0  0  0  0  0  0  0  0  0  0
  -18.0201   42.9857  -25.8780 C   0  0  0  0  0  0  0  0  0  0  0  0
  -18.5141   44.1428  -23.8788 F   0  0  0  0  0  0  0  0  0  0  0  0
  -19.6333   42.1563  -24.1777 C   0  0  0  0  0  0  0  0  0  0  0  0
  -18.6579   41.3947  -23.3948 C   0  0  2  0  0  0  0  0  0  0  0  0
  -19.1013   40.0146  -23.1689 N   0  0  0  0  0  0  0  0  0  0  0  0
  -18.1195   39.0709  -22.8318 C   0  0  1  0  0  0  0  0  0  0  0  0
  -18.6674   37.8225  -22.3225 C   0  0  0  0  0  0  0  0  0  0  0  0
  -18.0746   36.6419  -22.7852 C   0  0  0  0  0  0  0  0  0  0  0  0
  -18.5116   35.3975  -22.4015 C   0  0  0  0  0  0  0  0  0  0  0  0
  -19.5671   35.2686  -21.5306 C   0  0  0  0  0  0  0  0  0  0  0  0
  -20.1071   33.9805  -21.0932 C   0  0  0  0  0  0  0  0  0  0  0  0
  -20.1761   32.8644  -21.9012 C   0  0  0  0  0  0  0  0  0  0  0  0
  -20.6775   31.6656  -21.4208 C   0  0  0  0  0  0  0  0  0  0  0  0
  -21.1137   31.5893  -20.1149 C   0  0  0  0  0  0  0  0  0  0  0  0
  -21.7535   30.1013  -19.4506 S   0  0  0  0  0  6  0  0  0  0  0  0
  -20.7460   29.5469  -18.0729 C   0  0  0  0  0  0  0  0  0  0  0  0
  -21.8742   29.0176  -20.4755 O   0  0  0  0  0  0  0  0  0  0  0  0
  -23.1050   30.4111  -18.8637 O   0  0  0  0  0  0  0  0  0  0  0  0
  -21.0393   32.7279  -19.3055 C   0  0  0  0  0  0  0  0  0  0  0  0
  -20.5395   33.8984  -19.8065 C   0  0  0  0  0  0  0  0  0  0  0  0
  -20.1478   36.4532  -21.0764 C   0  0  0  0  0  0  0  0  0  0  0  0
  -19.7151   37.7050  -21.4579 C   0  0  0  0  0  0  0  0  0  0  0  0
  -16.8782   39.0076  -23.6449 C   0  0  0  0  0  0  0  0  0  0  0  0
  -16.5587   40.3094  -24.0397 F   0  0  0  0  0  0  0  0  0  0  0  0
  -15.7642   38.5242  -23.0330 F   0  0  0  0  0  0  0  0  0  0  0  0
  -17.1567   38.3226  -24.8339 F   0  0  0  0  0  0  0  0  0  0  0  0
  -18.4439   41.9365  -22.0499 C   0  0  0  0  0  0  0  0  0  0  0  0
  -19.3629   42.3787  -21.2958 O   0  0  0  0  0  0  0  0  0  0  0  0
  -17.1392   41.9935  -21.4966 N   0  0  0  0  0  0  0  0  0  0  0  0
  -16.8833   42.9053  -20.3822 C   0  0  0  0  0  0  0  0  0  0  0  0
  -15.4907   42.9556  -20.0116 C   0  0  0  0  0  0  0  0  0  0  0  0
  -14.3575   42.9784  -19.7003 N   0  0  0  0  0  0  0  0  0  0  0  0
  -17.5681   44.2773  -20.4516 C   0  0  0  0  0  0  0  0  0  0  0  0
  -17.9571   43.2615  -19.4343 C   0  0  0  0  0  0  0  0  0  0  0  0
  1  2  1  0
  2  3  1  0
  2  4  1  0
  2  5  1  0
  6  5  1  1
  6  7  1  0
  8  7  1  6
  8  9  1  0
  9 10  2  0
 10 11  1  0
 11 12  2  0
 12 13  1  0
 13 14  2  0
 14 15  1  0
 15 16  2  0
 16 17  1  0
 17 18  1  0
 17 19  2  0
 17 20  2  0
 16 21  1  0
 21 22  2  0
 12 23  1  0
 23 24  2  0
  8 25  1  0
 25 26  1  0
 25 27  1  0
 25 28  1  0
  6 29  1  0
 29 30  2  0
 29 31  1  0
 31 32  1  0
 32 33  1  0
 33 34  3  0
 32 35  1  0
 35 36  1  0
 24  9  1  0
 36 32  1  0
 22 13  1  0
M  END
$$$$
