
     RDKit          3D

 18 19  0  0  0  0  0  0  0  0999 V2000
  -22.8208   40.2044  -28.8254 O   0  0  0  0  0  0  0  0  0  0  0  0
  -22.1014   40.7971  -28.0016 C   0  0  0  0  0  0  0  0  0  0  0  0
  -22.0369   42.1738  -28.0162 O   0  0  0  0  0  0  0  0  0  0  0  0
  -21.3311   40.0622  -27.0282 C   0  0  0  0  0  0  0  0  0  0  0  0
  -21.2480   38.6932  -27.1442 C   0  0  0  0  0  0  0  0  0  0  0  0
  -20.4989   37.9930  -26.1951 C   0  0  0  0  0  0  0  0  0  0  0  0
  -19.8628   38.6418  -25.1761 C   0  0  0  0  0  0  0  0  0  0  0  0
  -19.0760   37.9514  -24.1716 C   0  0  0  0  0  0  0  0  0  0  0  0
  -19.0232   36.5822  -24.0638 C   0  0  0  0  0  0  0  0  0  0  0  0
  -18.2618   35.9297  -23.0922 C   0  0  0  0  0  0  0  0  0  0  0  0
  -17.5423   36.7096  -22.2165 C   0  0  0  0  0  0  0  0  0  0  0  0
  -16.7343   36.0679  -21.1870 C   0  0  0  0  0  0  0  0  0  0  0  0
  -16.6602   34.8307  -21.0474 O   0  0  0  0  0  0  0  0  0  0  0  0
  -16.0045   36.8567  -20.3096 O   0  0  0  0  0  0  0  0  0  0  0  0
  -17.5902   38.0783  -22.3182 C   0  0  0  0  0  0  0  0  0  0  0  0
  -18.3336   38.6405  -23.2646 N   0  0  0  0  0  0  0  0  0  0  0  0
  -19.9764   39.9765  -25.1096 N   0  0  0  0  0  0  0  0  0  0  0  0
  -20.6837   40.6968  -25.9957 C   0  0  0  0  0  0  0  0  0  0  0  0
  1  2  2  0
  2  3  1  0
  2  4  1  0
  4  5  2  0
  5  6  1  0
  6  7  2  0
  7  8  1  0
  8  9  2  0
  9 10  1  0
 10 11  2  0
 11 12  1  0
 12 13  2  0
 12 14  1  0
 11 15  1  0
 15 16  2  0
  7 17  1  0
 17 18  2  0
 18  4  1  0
 16  8  1  0
M  END
$$$$
