
     RDKit          3D

 26 28  0  0  0  0  0  0  0  0999 V2000
  -19.8962   37.8040  -26.1124 C   0  0  0  0  0  0  0  0  0  0  0  0
  -19.3024   37.6691  -24.7597 C   0  0  0  0  0  0  0  0  0  0  0  0
  -19.5070   38.4669  -23.6407 C   0  0  0  0  0  0  0  0  0  0  0  0
  -18.7577   37.9861  -22.5889 C   0  0  0  0  0  0  0  0  0  0  0  0
  -18.6594   38.4766  -21.2826 N   0  0  0  0  0  0  0  0  0  0  0  0
  -18.3799   39.8541  -20.9816 C   0  0  0  0  0  0  0  0  0  0  0  0
  -18.6668   40.8168  -21.8626 N   0  0  0  0  0  0  0  0  0  0  0  0
  -18.4421   42.1307  -21.6684 C   0  0  0  0  0  0  0  0  0  0  0  0
  -18.7830   43.0753  -22.6815 N   0  0  0  0  0  0  0  0  0  0  0  0
  -19.2981   42.6573  -23.9708 C   0  0  1  0  0  0  0  0  0  0  0  0
  -20.3612   43.6111  -24.3831 C   0  0  0  0  0  0  0  0  0  0  0  0
  -18.1994   42.4946  -24.9360 C   0  0  0  0  0  0  0  0  0  0  0  0
  -17.3012   43.5381  -25.1455 C   0  0  0  0  0  0  0  0  0  0  0  0
  -16.2567   43.4242  -26.0379 C   0  0  0  0  0  0  0  0  0  0  0  0
  -16.0550   42.2699  -26.7636 C   0  0  0  0  0  0  0  0  0  0  0  0
  -15.0252   42.1448  -27.6490 F   0  0  0  0  0  0  0  0  0  0  0  0
  -16.9385   41.2314  -26.5634 C   0  0  0  0  0  0  0  0  0  0  0  0
  -17.9987   41.3417  -25.6602 C   0  0  0  0  0  0  0  0  0  0  0  0
  -17.8731   42.5164  -20.4716 C   0  0  0  0  0  0  0  0  0  0  0  0
  -17.6161   43.9047  -20.2201 C   0  0  0  0  0  0  0  0  0  0  0  0
  -17.4088   45.0262  -20.0371 N   0  0  0  0  0  0  0  0  0  0  0  0
  -17.5551   41.5642  -19.5227 C   0  0  0  0  0  0  0  0  0  0  0  0
  -17.8121   40.2273  -19.7844 C   0  0  0  0  0  0  0  0  0  0  0  0
  -17.5228   39.2530  -18.8962 F   0  0  0  0  0  0  0  0  0  0  0  0
  -18.1083   36.9110  -23.0661 N   0  0  0  0  0  0  0  0  0  0  0  0
  -18.4329   36.7254  -24.3529 N   0  0  0  0  0  0  0  0  0  0  0  0
  1  2  1  0
  2  3  2  0
  3  4  1  0
  4  5  1  0
  5  6  1  0
  6  7  2  0
  7  8  1  0
  8  9  1  0
  9 10  1  0
 10 11  1  6
 10 12  1  0
 12 13  2  0
 13 14  1  0
 14 15  2  0
 15 16  1  0
 15 17  1  0
 17 18  2  0
  8 19  2  0
 19 20  1  0
 20 21  3  0
 19 22  1  0
 22 23  2  0
 23 24  1  0
  4 25  2  0
 25 26  1  0
 26  2  1  0
 23  6  1  0
 18 12  1  0
M  END
$$$$
