
     RDKit          3D

 22 24  0  0  0  0  0  0  0  0999 V2000
  -25.9086   25.5086  -34.1287 C   0  0  0  0  0  0  0  0  0  0  0  0
  -26.9991   25.5158  -33.3398 O   0  0  0  0  0  0  0  0  0  0  0  0
  -27.5941   24.7017  -32.4430 C   0  0  0  0  0  0  0  0  0  0  0  0
  -26.7688   23.7992  -31.7659 C   0  0  0  0  0  0  0  0  0  0  0  0
  -27.2841   22.9448  -30.8510 C   0  0  0  0  0  0  0  0  0  0  0  0
  -28.6591   22.9315  -30.5477 C   0  0  0  0  0  0  0  0  0  0  0  0
  -29.1468   21.9691  -29.5464 C   0  0  0  0  0  0  0  0  0  0  0  0
  -30.1491   22.2388  -28.6679 C   0  0  0  0  0  0  0  0  0  0  0  0
  -30.5734   21.2785  -27.7309 C   0  0  0  0  0  0  0  0  0  0  0  0
  -31.4837   21.4756  -26.9072 O   0  0  0  0  0  0  0  0  0  0  0  0
  -29.9260   20.0352  -27.7359 C   0  0  0  0  0  0  0  0  0  0  0  0
  -30.2500   19.0159  -26.8760 C   0  0  0  0  0  0  0  0  0  0  0  0
  -31.2872   19.2317  -25.9379 O   0  0  0  0  0  0  0  0  0  0  0  0
  -29.6209   17.7919  -26.8811 C   0  0  0  0  0  0  0  0  0  0  0  0
  -28.6279   17.5948  -27.7861 C   0  0  0  0  0  0  0  0  0  0  0  0
  -27.9289   16.3659  -27.8506 O   0  0  0  0  0  0  0  0  0  0  0  0
  -28.2683   18.5877  -28.6685 C   0  0  0  0  0  0  0  0  0  0  0  0
  -28.9195   19.8296  -28.6536 C   0  0  0  0  0  0  0  0  0  0  0  0
  -28.5921   20.7803  -29.4860 O   0  0  0  0  0  0  0  0  0  0  0  0
  -29.4422   23.8109  -31.2129 C   0  0  0  0  0  0  0  0  0  0  0  0
  -28.9393   24.6914  -32.1487 C   0  0  0  0  0  0  0  0  0  0  0  0
  -29.8004   25.5626  -32.7815 O   0  0  0  0  0  0  0  0  0  0  0  0
  1  2  1  0
  2  3  1  0
  3  4  2  0
  4  5  1  0
  5  6  2  0
  6  7  1  0
  7  8  2  0
  8  9  1  0
  9 10  2  0
  9 11  1  0
 11 12  2  0
 12 13  1  0
 12 14  1  0
 14 15  2  0
 15 16  1  0
 15 17  1  0
 17 18  2  0
 18 19  1  0
  6 20  1  0
 20 21  2  0
 21 22  1  0
 21  3  1  0
 19  7  1  0
 18 11  1  0
M  END
$$$$
