
     RDKit          3D

 30 33  0  0  0  0  0  0  0  0999 V2000
  -18.7644   36.3429  -25.5654 C   0  0  0  0  0  0  0  0  0  0  0  0
  -19.8851   37.0837  -24.8961 C   0  0  2  0  0  0  0  0  0  0  0  0
  -20.8149   37.6991  -25.9630 C   0  0  0  0  0  0  0  0  0  0  0  0
  -21.1586   39.1257  -25.5621 C   0  0  0  0  0  0  0  0  0  0  0  0
  -20.0661   39.9745  -25.5505 O   0  0  0  0  0  0  0  0  0  0  0  0
  -18.9116   39.3303  -25.0518 C   0  0  1  0  0  0  0  0  0  0  0  0
  -17.9874   40.3170  -24.4668 C   0  0  0  0  0  0  0  0  0  0  0  0
  -17.9578   40.3258  -23.0205 N   0  0  0  0  0  0  0  0  0  0  0  0
  -17.2953   41.3580  -22.4132 C   0  0  0  0  0  0  0  0  0  0  0  0
  -17.1788   41.4850  -21.0453 C   0  0  0  0  0  0  0  0  0  0  0  0
  -16.4677   42.6013  -20.4911 C   0  0  0  0  0  0  0  0  0  0  0  0
  -16.7803   43.7521  -20.9732 O   0  0  0  0  0  0  0  0  0  0  0  0
  -15.4793   42.5531  -19.4878 N   0  0  0  0  0  0  0  0  0  0  0  0
  -14.8842   43.7881  -18.9557 C   0  0  0  0  0  0  0  0  0  0  0  0
  -13.7591   43.4834  -18.0537 C   0  0  0  0  0  0  0  0  0  0  0  0
  -12.4918   43.2825  -18.5540 C   0  0  0  0  0  0  0  0  0  0  0  0
  -11.4203   43.0082  -17.7232 C   0  0  0  0  0  0  0  0  0  0  0  0
  -11.6324   42.9362  -16.3674 C   0  0  0  0  0  0  0  0  0  0  0  0
  -10.6242   42.6695  -15.4777 F   0  0  0  0  0  0  0  0  0  0  0  0
  -12.8900   43.1336  -15.8442 C   0  0  0  0  0  0  0  0  0  0  0  0
  -13.9531   43.4061  -16.6747 C   0  0  0  0  0  0  0  0  0  0  0  0
  -15.2066   43.6069  -16.2098 F   0  0  0  0  0  0  0  0  0  0  0  0
  -17.7527   40.5335  -20.2493 C   0  0  0  0  0  0  0  0  0  0  0  0
  -17.7303   40.5148  -18.9988 O   0  0  0  0  0  0  0  0  0  0  0  0
  -18.4314   39.4751  -20.8384 C   0  0  0  0  0  0  0  0  0  0  0  0
  -19.0297   38.4854  -20.0592 O   0  0  0  0  0  0  0  0  0  0  0  0
  -18.4995   39.4263  -22.2112 C   0  0  0  0  0  0  0  0  0  0  0  0
  -19.2345   38.3111  -22.8248 C   0  0  0  0  0  0  0  0  0  0  0  0
  -19.7492   37.4526  -22.0477 O   0  0  0  0  0  0  0  0  0  0  0  0
  -19.3345   38.2436  -24.2186 N   0  0  0  0  0  0  0  0  0  0  0  0
  2  1  1  6
  2  3  1  0
  3  4  1  0
  4  5  1  0
  5  6  1  0
  6  7  1  1
  7  8  1  0
  8  9  1  0
  9 10  2  0
 10 11  1  0
 11 12  2  0
 11 13  1  0
 13 14  1  0
 14 15  1  0
 15 16  2  0
 16 17  1  0
 17 18  2  0
 18 19  1  0
 18 20  1  0
 20 21  2  0
 21 22  1  0
 10 23  1  0
 23 24  2  0
 23 25  1  0
 25 26  1  0
 25 27  2  0
 27 28  1  0
 28 29  2  0
 28 30  1  0
 30  2  1  0
 30  6  1  0
 27  8  1  0
 21 15  1  0
M  END
$$$$
