
     RDKit          3D

 24 26  0  0  0  0  0  0  0  0999 V2000
  -19.7263    2.2488  -32.7193 C   0  0  0  0  0  0  0  0  0  0  0  0
  -20.3628    0.8921  -32.4766 C   0  0  0  0  0  0  0  0  0  0  0  0
  -21.1348    0.9659  -31.1769 C   0  0  0  0  0  0  0  0  0  0  0  0
  -19.2328   -0.0867  -32.2759 C   0  0  0  0  0  0  0  0  0  0  0  0
  -18.7447   -0.4738  -33.6400 C   0  0  0  0  0  0  0  0  0  0  0  0
  -17.4886   -1.1711  -33.5047 N   0  0  0  0  0  0  0  0  0  0  0  0
  -16.3127   -0.6688  -32.9330 C   0  0  0  0  0  0  0  0  0  0  0  0
  -15.3189   -1.4381  -32.3711 C   0  0  0  0  0  0  0  0  0  0  0  0
  -14.1626   -0.9036  -31.8279 C   0  0  0  0  0  0  0  0  0  0  0  0
  -13.9861    0.4629  -31.8439 C   0  0  0  0  0  0  0  0  0  0  0  0
  -12.8181    1.0439  -31.3246 N   0  0  0  0  0  0  0  0  0  0  0  0
  -11.7946    1.4863  -32.1819 C   0  0  0  0  0  0  0  0  0  0  0  0
  -12.0333    1.9538  -33.4542 C   0  0  0  0  0  0  0  0  0  0  0  0
  -10.9922    2.3661  -34.2793 C   0  0  0  0  0  0  0  0  0  0  0  0
   -9.6924    2.3260  -33.8646 C   0  0  0  0  0  0  0  0  0  0  0  0
   -9.4363    1.8615  -32.5941 C   0  0  0  0  0  0  0  0  0  0  0  0
  -10.4562    1.4574  -31.7862 C   0  0  0  0  0  0  0  0  0  0  0  0
  -14.9632    1.2526  -32.3991 C   0  0  0  0  0  0  0  0  0  0  0  0
  -16.1129    0.7112  -32.9383 C   0  0  0  0  0  0  0  0  0  0  0  0
  -19.8182   -1.3674  -34.2295 C   0  0  0  0  0  0  0  0  0  0  0  0
  -21.1973   -0.7810  -34.0321 C   0  0  0  0  0  0  0  0  0  0  0  0
  -22.0813   -1.6584  -33.1709 C   0  0  0  0  0  0  0  0  0  0  0  0
  -21.8538   -0.7815  -35.4232 C   0  0  0  0  0  0  0  0  0  0  0  0
  -21.1825    0.5922  -33.6087 N   0  0  0  0  0  0  0  0  0  0  0  0
  1  2  1  0
  2  3  1  0
  2  4  1  0
  4  5  1  0
  5  6  1  0
  6  7  1  0
  7  8  2  0
  8  9  1  0
  9 10  2  0
 10 11  1  0
 11 12  1  0
 12 13  2  0
 13 14  1  0
 14 15  2  0
 15 16  1  0
 16 17  2  0
 10 18  1  0
 18 19  2  0
  5 20  1  0
 20 21  1  0
 21 22  1  0
 21 23  1  0
 21 24  1  0
 24  2  1  0
 19  7  1  0
 17 12  1  0
M  END
$$$$
