
     RDKit          3D

 24 25  0  0  0  0  0  0  0  0999 V2000
  -24.1095   13.9989  -25.6431 C   0  0  0  0  0  0  0  0  0  0  0  0
  -23.6057   15.2551  -26.0531 O   0  0  0  0  0  0  0  0  0  0  0  0
  -24.4982   16.1632  -26.6057 C   0  0  0  0  0  0  0  0  0  0  0  0
  -25.6377   15.7551  -27.2588 C   0  0  0  0  0  0  0  0  0  0  0  0
  -26.4882   16.7270  -27.7891 C   0  0  0  0  0  0  0  0  0  0  0  0
  -26.2132   18.0663  -27.6730 C   0  0  0  0  0  0  0  0  0  0  0  0
  -27.0840   19.0965  -28.2170 C   0  0  0  0  0  0  0  0  0  0  0  0
  -26.6880   20.1051  -28.9310 C   0  0  0  0  0  0  0  0  0  0  0  0
  -27.6249   21.1044  -29.4858 C   0  0  0  0  0  0  0  0  0  0  0  0
  -28.8300   20.8624  -29.3778 O   0  0  0  0  0  0  0  0  0  0  0  0
  -27.1772   22.2896  -30.1153 N   0  0  0  0  0  0  0  0  0  0  0  0
  -27.9287   23.1753  -30.9023 C   0  0  0  0  0  0  0  0  0  0  0  0
  -29.3003   23.0571  -30.9901 C   0  0  0  0  0  0  0  0  0  0  0  0
  -30.0769   23.8888  -31.7679 C   0  0  0  0  0  0  0  0  0  0  0  0
  -29.4295   24.8678  -32.4736 C   0  0  0  0  0  0  0  0  0  0  0  0
  -28.0867   25.0093  -32.4084 C   0  0  0  0  0  0  0  0  0  0  0  0
  -27.2771   24.1769  -31.6269 C   0  0  0  0  0  0  0  0  0  0  0  0
  -25.8467   24.3888  -31.6504 C   0  0  0  0  0  0  0  0  0  0  0  0
  -25.2624   25.2786  -32.3061 O   0  0  0  0  0  0  0  0  0  0  0  0
  -25.0432   23.5136  -30.8642 O   0  0  0  0  0  0  0  0  0  0  0  0
  -25.0524   18.4687  -27.0072 C   0  0  0  0  0  0  0  0  0  0  0  0
  -24.2054   17.5270  -26.4801 C   0  0  0  0  0  0  0  0  0  0  0  0
  -23.0423   17.8826  -25.8114 O   0  0  0  0  0  0  0  0  0  0  0  0
  -21.8059   17.5228  -26.3972 C   0  0  0  0  0  0  0  0  0  0  0  0
  1  2  1  0
  2  3  1  0
  3  4  2  0
  4  5  1  0
  5  6  2  0
  6  7  1  0
  7  8  2  0
  8  9  1  0
  9 10  2  0
  9 11  1  0
 11 12  1  0
 12 13  2  0
 13 14  1  0
 14 15  2  0
 15 16  1  0
 16 17  2  0
 17 18  1  0
 18 19  2  0
 18 20  1  0
  6 21  1  0
 21 22  2  0
 22 23  1  0
 23 24  1  0
 22  3  1  0
 17 12  1  0
M  END
$$$$
