
     RDKit          3D

 29 33  0  0  0  0  0  0  0  0999 V2000
  -25.7521   23.3039  -37.9314 N   0  0  0  0  0  0  0  0  0  0  0  0
  -24.5130   23.7424  -37.3855 C   0  0  0  0  0  0  0  0  0  0  0  0
  -24.2572   24.9652  -37.3367 O   0  0  0  0  0  0  0  0  0  0  0  0
  -23.5344   22.8001  -36.8813 C   0  0  0  0  0  0  0  0  0  0  0  0
  -23.8942   21.5035  -36.6064 C   0  0  0  0  0  0  0  0  0  0  0  0
  -22.9524   20.6372  -36.1320 C   0  0  0  0  0  0  0  0  0  0  0  0
  -21.6573   21.0623  -35.9329 C   0  0  0  0  0  0  0  0  0  0  0  0
  -20.6481   20.1127  -35.4194 C   0  0  0  0  0  0  0  0  0  0  0  0
  -19.6880   20.4013  -34.5315 N   0  0  0  0  0  0  0  0  0  0  0  0
  -18.9519   19.3083  -34.2898 C   0  0  0  0  0  0  0  0  0  0  0  0
  -17.8039   19.1989  -33.3837 C   0  0  0  0  0  0  0  0  0  0  0  0
  -16.5152   19.3910  -33.8081 C   0  0  0  0  0  0  0  0  0  0  0  0
  -15.4680   19.2743  -32.9187 C   0  0  0  0  0  0  0  0  0  0  0  0
  -15.6685   18.9639  -31.5837 C   0  0  0  0  0  0  0  0  0  0  0  0
  -16.9613   18.7668  -31.1382 C   0  0  0  0  0  0  0  0  0  0  0  0
  -17.9945   18.8881  -32.0430 C   0  0  0  0  0  0  0  0  0  0  0  0
  -16.8787   18.4725  -29.7790 O   0  0  0  0  0  0  0  0  0  0  0  0
  -15.5947   18.8559  -29.2760 C   0  0  0  0  0  0  0  0  0  0  0  0
  -14.8187   18.7853  -30.4821 O   0  0  0  0  0  0  0  0  0  0  0  0
  -19.4933   18.3133  -35.0683 C   0  0  0  0  0  0  0  0  0  0  0  0
  -18.9755   16.9362  -35.0988 C   0  0  0  0  0  0  0  0  0  0  0  0
  -18.3582   16.3891  -33.9942 C   0  0  0  0  0  0  0  0  0  0  0  0
  -17.8816   15.0815  -34.0611 C   0  0  0  0  0  0  0  0  0  0  0  0
  -18.0214   14.3390  -35.2124 C   0  0  0  0  0  0  0  0  0  0  0  0
  -18.6524   14.9337  -36.3050 C   0  0  0  0  0  0  0  0  0  0  0  0
  -19.1016   16.1922  -36.2143 N   0  0  0  0  0  0  0  0  0  0  0  0
  -20.5303   18.8176  -35.7546 N   0  0  0  0  0  0  0  0  0  0  0  0
  -21.2753   22.3591  -36.2022 C   0  0  0  0  0  0  0  0  0  0  0  0
  -22.2230   23.2335  -36.6803 C   0  0  0  0  0  0  0  0  0  0  0  0
  1  2  1  0
  2  3  2  0
  2  4  1  0
  4  5  2  0
  5  6  1  0
  6  7  2  0
  7  8  1  0
  8  9  2  0
  9 10  1  0
 10 11  1  0
 11 12  2  0
 12 13  1  0
 13 14  2  0
 14 15  1  0
 15 16  2  0
 15 17  1  0
 17 18  1  0
 18 19  1  0
 10 20  2  0
 20 21  1  0
 21 22  2  0
 22 23  1  0
 23 24  2  0
 24 25  1  0
 25 26  2  0
 20 27  1  0
  7 28  1  0
 28 29  2  0
 29  4  1  0
 27  8  1  0
 16 11  1  0
 26 21  1  0
 19 14  1  0
M  END
$$$$
