
     RDKit          3D

 22 24  0  0  0  0  0  0  0  0999 V2000
  -20.2354   24.0755  -37.5584 C   0  0  0  0  0  0  0  0  0  0  0  0
  -21.2915   24.7176  -38.3955 C   0  0  0  0  0  0  0  0  0  0  0  0
  -21.4407   23.9703  -39.6934 C   0  0  0  0  0  0  0  0  0  0  0  0
  -20.4744   23.5620  -40.4407 O   0  0  0  0  0  0  0  0  0  0  0  0
  -20.9199   22.9511  -41.4875 C   0  0  0  0  0  0  0  0  0  0  0  0
  -20.2279   22.3645  -42.5295 C   0  0  0  0  0  0  0  0  0  0  0  0
  -20.9192   21.7546  -43.5545 C   0  0  0  0  0  0  0  0  0  0  0  0
  -22.2963   21.7502  -43.5039 C   0  0  0  0  0  0  0  0  0  0  0  0
  -22.9709   22.3438  -42.4521 C   0  0  0  0  0  0  0  0  0  0  0  0
  -22.3091   22.9565  -41.4259 C   0  0  0  0  0  0  0  0  0  0  0  0
  -22.6559   23.6121  -40.2736 C   0  0  0  0  0  0  0  0  0  0  0  0
  -23.9476   23.8757  -39.6968 C   0  0  0  0  0  0  0  0  0  0  0  0
  -24.9240   24.1911  -40.4943 O   0  0  0  0  0  0  0  0  0  0  0  0
  -24.3439   23.8379  -38.3086 C   0  0  0  0  0  0  0  0  0  0  0  0
  -25.3673   24.6809  -37.8480 C   0  0  0  0  0  0  0  0  0  0  0  0
  -25.8152   24.6507  -36.5463 C   0  0  0  0  0  0  0  0  0  0  0  0
  -27.2065   25.8116  -35.9613 Br  0  0  0  0  0  0  0  0  0  0  0  0
  -25.2660   23.7780  -35.6354 C   0  0  0  0  0  0  0  0  0  0  0  0
  -25.7353   23.7696  -34.3357 O   0  0  0  0  0  0  0  0  0  0  0  0
  -24.2556   22.9312  -36.0502 C   0  0  0  0  0  0  0  0  0  0  0  0
  -23.5134   21.7332  -34.7679 Br  0  0  0  0  0  0  0  0  0  0  0  0
  -23.8336   22.9882  -37.3551 C   0  0  0  0  0  0  0  0  0  0  0  0
  1  2  1  0
  2  3  1  0
  3  4  1  0
  4  5  1  0
  5  6  2  0
  6  7  1  0
  7  8  2  0
  8  9  1  0
  9 10  2  0
 10 11  1  0
 11 12  1  0
 12 13  2  0
 12 14  1  0
 14 15  2  0
 15 16  1  0
 16 17  1  0
 16 18  2  0
 18 19  1  0
 18 20  1  0
 20 21  1  0
 20 22  2  0
 11  3  2  0
 22 14  1  0
 10  5  1  0
M  END
$$$$
