
     RDKit          3D

 23 25  0  0  0  0  0  0  0  0999 V2000
  -16.0574   38.1756  -21.8739 C   0  0  0  0  0  0  0  0  0  0  0  0
  -17.1277   37.1856  -22.0992 C   0  0  2  0  0  0  0  0  0  0  0  0
  -16.8841   36.4271  -23.3675 C   0  0  0  0  0  0  0  0  0  0  0  0
  -17.5558   35.0960  -23.2798 C   0  0  0  0  0  0  0  0  0  0  0  0
  -18.7373   35.1355  -22.4724 N   0  0  0  0  0  0  0  0  0  0  0  0
  -19.4375   33.9070  -22.3446 C   0  0  0  0  0  0  0  0  0  0  0  0
  -18.9237   32.8475  -22.7788 O   0  0  0  0  0  0  0  0  0  0  0  0
  -20.7907   33.8156  -21.6983 C   0  0  0  0  0  0  0  0  0  0  0  0
  -21.2315   32.4024  -21.8485 C   0  0  0  0  0  0  0  0  0  0  0  0
  -21.5890   31.2729  -21.9516 N   0  0  0  0  0  0  0  0  0  0  0  0
  -19.3005   36.2753  -21.7674 C   0  0  0  0  0  0  0  0  0  0  0  0
  -18.5426   37.5668  -21.9624 C   0  0  2  0  0  0  0  0  0  0  0  0
  -19.1463   38.3973  -22.9423 N   0  0  0  0  0  0  0  0  0  0  0  0
  -19.9598   37.8352  -24.0148 C   0  0  0  0  0  0  0  0  0  0  0  0
  -19.0127   39.8038  -22.8906 C   0  0  0  0  0  0  0  0  0  0  0  0
  -19.2187   40.5811  -23.9962 N   0  0  0  0  0  0  0  0  0  0  0  0
  -19.0739   41.8982  -24.0175 C   0  0  0  0  0  0  0  0  0  0  0  0
  -18.7031   42.5519  -22.9073 N   0  0  0  0  0  0  0  0  0  0  0  0
  -18.4778   41.8804  -21.7725 C   0  0  0  0  0  0  0  0  0  0  0  0
  -18.1069   42.3342  -20.5621 N   0  0  0  0  0  0  0  0  0  0  0  0
  -18.0194   41.2555  -19.7498 C   0  0  0  0  0  0  0  0  0  0  0  0
  -18.3440   40.1193  -20.4845 C   0  0  0  0  0  0  0  0  0  0  0  0
  -18.6351   40.5117  -21.7729 C   0  0  0  0  0  0  0  0  0  0  0  0
  2  1  1  6
  2  3  1  0
  3  4  1  0
  4  5  1  0
  5  6  1  0
  6  7  2  0
  6  8  1  0
  8  9  1  0
  9 10  3  0
  5 11  1  0
 11 12  1  0
 12 13  1  6
 13 14  1  0
 13 15  1  0
 15 16  2  0
 16 17  1  0
 17 18  2  0
 18 19  1  0
 19 20  1  0
 20 21  1  0
 21 22  2  0
 22 23  1  0
 12  2  1  0
 23 15  1  0
 23 19  2  0
M  END
$$$$
