
     RDKit          3D

 24 27  0  0  0  0  0  0  0  0999 V2000
  -18.9988   24.3183  -43.3070 C   0  0  0  0  0  0  0  0  0  0  0  0
  -20.3463   23.9664  -43.3946 O   0  0  0  0  0  0  0  0  0  0  0  0
  -20.6454   22.9488  -42.5093 C   0  0  1  0  0  0  0  0  0  0  0  0
  -19.7403   22.9460  -41.2966 C   0  0  0  0  0  0  0  0  0  0  0  0
  -20.5037   23.0632  -40.0117 C   0  0  0  0  0  0  0  0  0  0  0  0
  -21.5530   21.9808  -39.8501 C   0  0  1  0  0  0  0  0  0  0  0  0
  -22.4110   22.2738  -38.7000 C   0  0  0  0  0  0  0  0  0  0  0  0
  -23.1379   23.2960  -38.7066 O   0  0  0  0  0  0  0  0  0  0  0  0
  -22.4442   21.4015  -37.5353 C   0  0  0  0  0  0  0  0  0  0  0  0
  -22.4939   21.8889  -36.2465 C   0  0  0  0  0  0  0  0  0  0  0  0
  -22.5228   21.0355  -35.1695 C   0  0  0  0  0  0  0  0  0  0  0  0
  -22.5034   19.6725  -35.3377 C   0  0  0  0  0  0  0  0  0  0  0  0
  -22.5326   18.8684  -34.2696 N   0  0  0  0  0  0  0  0  0  0  0  0
  -22.5151   17.5239  -34.3891 C   0  0  0  0  0  0  0  0  0  0  0  0
  -22.4656   16.9635  -35.6528 C   0  0  0  0  0  0  0  0  0  0  0  0
  -22.4354   17.7819  -36.7558 C   0  0  0  0  0  0  0  0  0  0  0  0
  -22.4541   19.1543  -36.6093 C   0  0  0  0  0  0  0  0  0  0  0  0
  -22.4256   20.0183  -37.6781 C   0  0  0  0  0  0  0  0  0  0  0  0
  -22.4478   15.4840  -35.7443 C   0  0  0  0  0  0  0  0  0  0  0  0
  -23.2062   14.9436  -34.5668 C   0  0  0  0  0  0  0  0  0  0  0  0
  -22.5138   15.3806  -33.2892 C   0  0  0  0  0  0  0  0  0  0  0  0
  -22.5480   16.7844  -33.2300 O   0  0  0  0  0  0  0  0  0  0  0  0
  -22.3932   21.9821  -41.1076 C   0  0  0  0  0  0  0  0  0  0  0  0
  -22.0574   23.1762  -41.9910 C   0  0  0  0  0  0  0  0  0  0  0  0
  1  2  1  0
  3  2  1  6
  3  4  1  0
  4  5  1  0
  5  6  1  0
  6  7  1  1
  7  8  2  0
  7  9  1  0
  9 10  2  0
 10 11  1  0
 11 12  2  0
 12 13  1  0
 13 14  2  0
 14 15  1  0
 15 16  2  0
 16 17  1  0
 17 18  2  0
 15 19  1  0
 19 20  1  0
 20 21  1  0
 21 22  1  0
  6 23  1  0
 23 24  1  0
 24  3  1  0
 18  9  1  0
 17 12  1  0
 22 14  1  0
M  END
$$$$
