
     RDKit          3D

 20 21  0  0  0  0  0  0  0  0999 V2000
  -17.8563   44.0423  -22.8168 C   0  0  0  0  0  0  0  0  0  0  0  0
  -16.5683   44.1527  -22.0782 C   0  0  0  0  0  0  0  0  0  0  0  0
  -15.5925   45.0680  -22.2276 N   0  0  0  0  0  0  0  0  0  0  0  0
  -14.6216   44.8188  -21.3875 O   0  0  0  0  0  0  0  0  0  0  0  0
  -14.8752   43.7777  -20.6638 C   0  0  0  0  0  0  0  0  0  0  0  0
  -14.0701   43.1248  -19.5866 C   0  0  0  0  0  0  0  0  0  0  0  0
  -16.1221   43.3139  -21.0745 C   0  0  0  0  0  0  0  0  0  0  0  0
  -16.8238   42.1142  -20.5034 C   0  0  0  0  0  0  0  0  0  0  0  0
  -16.7866   41.1327  -21.5162 O   0  0  0  0  0  0  0  0  0  0  0  0
  -17.5923   40.0044  -21.5466 C   0  0  0  0  0  0  0  0  0  0  0  0
  -18.3746   39.8328  -20.5761 O   0  0  0  0  0  0  0  0  0  0  0  0
  -17.5236   39.0330  -22.6991 C   0  0  0  0  0  0  0  0  0  0  0  0
  -18.7397   38.1594  -22.6067 C   0  0  0  0  0  0  0  0  0  0  0  0
  -18.8037   37.2723  -21.5724 O   0  0  0  0  0  0  0  0  0  0  0  0
  -19.0978   35.9596  -21.4654 C   0  0  0  0  0  0  0  0  0  0  0  0
  -20.3560   35.5360  -21.0039 C   0  0  0  0  0  0  0  0  0  0  0  0
  -20.6751   34.2049  -20.8855 C   0  0  0  0  0  0  0  0  0  0  0  0
  -19.7450   33.2383  -21.2256 C   0  0  0  0  0  0  0  0  0  0  0  0
  -18.5030   33.6234  -21.6810 C   0  0  0  0  0  0  0  0  0  0  0  0
  -18.2028   34.9781  -21.7920 C   0  0  0  0  0  0  0  0  0  0  0  0
  1  2  1  0
  2  3  2  0
  3  4  1  0
  4  5  1  0
  5  6  1  0
  5  7  2  0
  7  8  1  0
  8  9  1  0
  9 10  1  0
 10 11  2  0
 10 12  1  0
 12 13  1  0
 13 14  1  0
 14 15  1  0
 15 16  2  0
 16 17  1  0
 17 18  2  0
 18 19  1  0
 19 20  2  0
  7  2  1  0
 20 15  1  0
M  END
$$$$
