
     RDKit          3D

 33 35  0  0  0  0  0  0  0  0999 V2000
  -28.9400   19.4533  -31.6624 C   0  0  0  0  0  0  0  0  0  0  0  0
  -28.3737   19.6541  -30.3676 O   0  0  0  0  0  0  0  0  0  0  0  0
  -29.0363   20.4389  -29.4154 C   0  0  0  0  0  0  0  0  0  0  0  0
  -29.8212   19.7126  -28.5122 C   0  0  0  0  0  0  0  0  0  0  0  0
  -29.8739   18.2952  -28.6069 N   0  0  0  0  0  0  0  0  0  0  0  0
  -30.7116   17.5748  -27.7163 C   0  0  0  0  0  0  0  0  0  0  0  0
  -30.1772   17.0866  -26.5229 C   0  0  0  0  0  0  0  0  0  0  0  0
  -30.9820   16.3831  -25.6641 C   0  0  0  0  0  0  0  0  0  0  0  0
  -32.3086   16.1442  -25.9483 C   0  0  0  0  0  0  0  0  0  0  0  0
  -33.3390   15.2348  -24.8358 S   0  0  0  0  0  6  0  0  0  0  0  0
  -33.1765   15.9257  -23.2091 C   0  0  0  0  0  0  0  0  0  0  0  0
  -34.7694   15.4480  -25.2669 O   0  0  0  0  0  0  0  0  0  0  0  0
  -33.0475   13.7828  -24.8842 O   0  0  0  0  0  0  0  0  0  0  0  0
  -32.7698   16.6340  -27.1053 N   0  0  0  0  0  0  0  0  0  0  0  0
  -32.0397   17.3282  -27.9882 C   0  0  0  0  0  0  0  0  0  0  0  0
  -32.6697   17.8129  -29.2596 C   0  0  0  0  0  0  0  0  0  0  0  0
  -30.4896   20.3915  -27.5747 N   0  0  0  0  0  0  0  0  0  0  0  0
  -30.4519   21.7088  -27.4512 C   0  0  0  0  0  0  0  0  0  0  0  0
  -29.7072   22.3989  -28.3062 N   0  0  0  0  0  0  0  0  0  0  0  0
  -28.9738   21.7881  -29.3163 C   0  0  0  0  0  0  0  0  0  0  0  0
  -28.2506   22.5758  -30.1291 O   0  0  0  0  0  0  0  0  0  0  0  0
  -28.5977   23.6351  -30.9166 C   0  0  0  0  0  0  0  0  0  0  0  0
  -27.6343   24.7993  -30.7429 C   0  0  0  0  0  0  0  0  0  0  0  0
  -26.5079   24.7945  -31.7526 C   0  0  0  0  0  0  0  0  0  0  0  0
  -26.9962   24.6353  -33.0890 N   0  0  0  0  0  0  0  0  0  0  0  0
  -26.1564   24.7533  -34.1948 C   0  0  0  0  0  0  0  0  0  0  0  0
  -24.9556   25.1598  -34.0460 O   0  0  0  0  0  0  0  0  0  0  0  0
  -26.5459   24.4503  -35.4914 O   0  0  0  0  0  0  0  0  0  0  0  0
  -25.8588   23.4572  -36.2261 C   0  0  0  0  0  0  0  0  0  0  0  0
  -26.8090   22.6434  -37.0868 C   0  0  0  0  0  0  0  0  0  0  0  0
  -24.8046   24.1414  -37.0713 C   0  0  0  0  0  0  0  0  0  0  0  0
  -28.3967   24.3418  -33.2504 C   0  0  0  0  0  0  0  0  0  0  0  0
  -28.6650   23.1495  -32.3629 C   0  0  0  0  0  0  0  0  0  0  0  0
  1  2  1  0
  2  3  1  0
  3  4  2  0
  4  5  1  0
  5  6  1  0
  6  7  2  0
  7  8  1  0
  8  9  2  0
  9 10  1  0
 10 11  1  0
 10 12  2  0
 10 13  2  0
  9 14  1  0
 14 15  2  0
 15 16  1  0
  4 17  1  0
 17 18  2  0
 18 19  1  0
 19 20  2  0
 20 21  1  0
 21 22  1  0
 22 23  1  0
 23 24  1  0
 24 25  1  0
 25 26  1  0
 26 27  2  0
 26 28  1  0
 28 29  1  0
 29 30  1  0
 29 31  1  0
 25 32  1  0
 32 33  1  0
 20  3  1  0
 33 22  1  0
 15  6  1  0
M  END
$$$$
