
     RDKit          3D

 14 16  0  0  0  0  0  0  0  0999 V2000
    9.4210    9.2739  -28.4768 O   0  0  0  0  0  0  0  0  0  0  0  0
    8.3400    8.5926  -28.5114 C   0  0  0  0  0  0  0  0  0  0  0  0
    7.7673    8.4084  -29.7527 C   0  0  0  0  0  0  0  0  0  0  0  0
    6.5995    7.6755  -29.8114 C   0  0  0  0  0  0  0  0  0  0  0  0
    6.0599    7.1641  -28.6440 C   0  0  0  0  0  0  0  0  0  0  0  0
    6.6902    7.3914  -27.4474 C   0  0  0  0  0  0  0  0  0  0  0  0
    7.8095    8.0924  -27.3814 N   0  0  0  0  0  0  0  0  0  0  0  0
    8.5250    8.3687  -26.1499 C   0  0  0  0  0  0  0  0  0  0  0  0
    7.8819    7.7850  -24.9387 C   0  0  2  0  0  0  0  0  0  0  0  0
    8.3383    6.4038  -24.5944 C   0  0  0  0  0  0  0  0  0  0  0  0
    8.0240    5.4657  -25.6328 N   0  0  0  0  0  0  0  0  0  0  0  0
    6.6492    5.4481  -26.0228 C   0  0  0  0  0  0  0  0  0  0  0  0
    6.0644    6.8180  -26.2294 C   0  0  1  0  0  0  0  0  0  0  0  0
    6.3744    7.7549  -25.0834 C   0  0  0  0  0  0  0  0  0  0  0  0
  1  2  2  0
  2  3  1  0
  3  4  2  0
  4  5  1  0
  5  6  2  0
  6  7  1  0
  7  8  1  0
  9  8  1  6
  9 10  1  0
 10 11  1  0
 11 12  1  0
 13 12  1  1
 13 14  1  0
  7  2  1  0
 14  9  1  0
 13  6  1  0
M  END
$$$$
