
     RDKit          3D

 32 35  0  0  0  0  0  0  0  0999 V2000
  -16.1067   35.3811  -22.4759 C   0  0  0  0  0  0  0  0  0  0  0  0
  -17.5288   34.9885  -22.2307 C   0  0  0  0  0  0  0  0  0  0  0  0
  -18.1389   33.8600  -22.6007 N   0  0  0  0  0  0  0  0  0  0  0  0
  -19.3927   33.8929  -22.1883 N   0  0  0  0  0  0  0  0  0  0  0  0
  -19.6016   35.0729  -21.5344 C   0  0  0  0  0  0  0  0  0  0  0  0
  -20.9325   35.4092  -20.9623 C   0  0  0  0  0  0  0  0  0  0  0  0
  -18.4418   35.7979  -21.5388 C   0  0  0  0  0  0  0  0  0  0  0  0
  -18.1543   37.1067  -20.9698 C   0  0  0  0  0  0  0  0  0  0  0  0
  -18.6605   38.1760  -21.8227 C   0  0  0  0  0  0  0  0  0  0  0  0
  -19.3950   37.8611  -23.4788 S   0  0  0  0  0  0  0  0  0  0  0  0
  -19.7662   39.5789  -23.8045 C   0  0  0  0  0  0  0  0  0  0  0  0
  -19.3360   40.2186  -22.7100 C   0  0  0  0  0  0  0  0  0  0  0  0
  -18.7712   39.5327  -21.6905 C   0  0  0  0  0  0  0  0  0  0  0  0
  -18.2237   40.1489  -20.4254 C   0  0  0  0  0  0  0  0  0  0  0  0
  -18.6045   39.6480  -19.3391 O   0  0  0  0  0  0  0  0  0  0  0  0
  -17.3346   41.2157  -20.4173 N   0  0  0  0  0  0  0  0  0  0  0  0
  -16.8246   41.8505  -21.6310 C   0  0  0  0  0  0  0  0  0  0  0  0
  -15.9918   42.9782  -21.1102 C   0  0  2  0  0  0  0  0  0  0  0  0
  -14.6574   42.6336  -21.1843 O   0  0  0  0  0  0  0  0  0  0  0  0
  -16.4756   43.1037  -19.6746 C   0  0  0  0  0  0  0  0  0  0  0  0
  -16.8054   41.8155  -19.3322 O   0  0  0  0  0  0  0  0  0  0  0  0
  -19.5402   41.6326  -22.7587 C   0  0  0  0  0  0  0  0  0  0  0  0
  -19.1935   42.3579  -21.8225 O   0  0  0  0  0  0  0  0  0  0  0  0
  -20.1122   42.2084  -23.8196 N   0  0  0  0  0  0  0  0  0  0  0  0
  -20.2749   43.6623  -23.7602 C   0  0  0  0  0  0  0  0  0  0  0  0
  -20.5250   41.5128  -24.8912 C   0  0  0  0  0  0  0  0  0  0  0  0
  -21.0492   42.1353  -25.8380 O   0  0  0  0  0  0  0  0  0  0  0  0
  -20.3427   40.1642  -24.8736 N   0  0  0  0  0  0  0  0  0  0  0  0
  -20.7742   39.3896  -25.9856 C   0  0  0  0  0  0  0  0  0  0  0  0
  -19.7762   39.4518  -27.1034 C   0  0  0  0  0  0  0  0  0  0  0  0
  -20.2482   38.7132  -28.3355 C   0  0  0  0  0  0  0  0  0  0  0  0
  -18.4099   38.9205  -26.7337 C   0  0  0  0  0  0  0  0  0  0  0  0
  1  2  1  0
  2  3  2  0
  3  4  1  0
  4  5  1  0
  5  6  1  0
  5  7  2  0
  7  8  1  0
  8  9  1  0
  9 10  1  0
 10 11  1  0
 11 12  2  0
 12 13  1  0
 13 14  1  0
 14 15  2  0
 14 16  1  0
 16 17  1  0
 17 18  1  0
 18 19  1  1
 18 20  1  0
 20 21  1  0
 12 22  1  0
 22 23  2  0
 22 24  1  0
 24 25  1  0
 24 26  1  0
 26 27  2  0
 26 28  1  0
 28 29  1  0
 29 30  1  0
 30 31  1  0
 30 32  1  0
  7  2  1  0
 13  9  2  0
 21 16  1  0
 28 11  1  0
M  END
$$$$
