
     RDKit          3D

 46 52  0  0  0  0  0  0  0  0999 V2000
  -21.4708    0.7604  -28.1576 O   0  0  0  0  0  0  0  0  0  0  0  0
  -21.8531    1.1435  -29.3028 C   0  0  0  0  0  0  0  0  0  0  0  0
  -20.9140    1.1290  -30.3264 N   0  0  0  0  0  0  0  0  0  0  0  0
  -19.5698    1.6537  -30.2875 C   0  0  0  0  0  0  0  0  0  0  0  0
  -18.6799    1.1831  -31.4017 C   0  0  0  0  0  0  0  0  0  0  0  0
  -19.2448    0.6478  -32.5653 C   0  0  0  0  0  0  0  0  0  0  0  0
  -18.4774    0.1886  -33.6138 C   0  0  0  0  0  0  0  0  0  0  0  0
  -17.0980    0.2456  -33.5433 C   0  0  0  0  0  0  0  0  0  0  0  0
  -16.5282    0.7649  -32.4153 C   0  0  0  0  0  0  0  0  0  0  0  0
  -17.3195    1.2246  -31.3644 C   0  0  0  0  0  0  0  0  0  0  0  0
  -18.9258    1.8351  -28.9611 C   0  0  0  0  0  0  0  0  0  0  0  0
  -19.2669    3.0572  -29.7791 C   0  0  0  0  0  0  0  0  0  0  0  0
  -23.2578    1.5505  -29.4098 C   0  0  0  0  0  0  0  0  0  0  0  0
  -24.1542    0.7876  -30.1771 C   0  0  0  0  0  0  0  0  0  0  0  0
  -23.5739   -0.3874  -30.8583 C   0  0  0  0  0  0  0  0  0  0  0  0
  -23.7858   -0.2340  -32.3056 N   0  0  0  0  0  0  0  0  0  0  0  0
  -23.6619   -1.4841  -32.9583 C   0  0  0  0  0  0  0  0  0  0  0  0
  -22.4530   -1.5126  -33.9116 C   0  0  0  0  0  0  0  0  0  0  0  0
  -22.7482   -0.4092  -34.9164 C   0  0  0  0  0  0  0  0  0  0  0  0
  -21.9257   -0.4904  -36.0787 N   0  0  0  0  0  0  0  0  0  0  0  0
  -20.6331   -1.0688  -35.8689 C   0  0  0  0  0  0  0  0  0  0  0  0
  -20.1224   -1.5201  -37.2440 C   0  0  0  0  0  0  0  0  0  0  0  0
  -20.0048   -0.2594  -38.0875 C   0  0  0  0  0  0  0  0  0  0  0  0
  -21.3098    0.4979  -38.1577 C   0  0  0  0  0  0  0  0  0  0  0  0
  -21.7822    0.7732  -36.7315 C   0  0  0  0  0  0  0  0  0  0  0  0
  -22.7584    0.9162  -34.2324 C   0  0  0  0  0  0  0  0  0  0  0  0
  -22.8234    0.7661  -32.7328 C   0  0  0  0  0  0  0  0  0  0  0  0
  -25.4765    1.1120  -30.3027 C   0  0  0  0  0  0  0  0  0  0  0  0
  -26.4320    0.3188  -31.0795 C   0  0  0  0  0  0  0  0  0  0  0  0
  -27.0227   -0.8041  -30.5562 C   0  0  0  0  0  0  0  0  0  0  0  0
  -27.9148   -1.5587  -31.3010 C   0  0  0  0  0  0  0  0  0  0  0  0
  -28.2368   -1.1970  -32.6020 C   0  0  0  0  0  0  0  0  0  0  0  0
  -27.6513   -0.0741  -33.1348 C   0  0  0  0  0  0  0  0  0  0  0  0
  -27.9857    0.3379  -34.5429 C   0  0  0  0  0  0  0  0  0  0  0  0
  -29.1688   -0.2997  -34.9020 F   0  0  0  0  0  0  0  0  0  0  0  0
  -26.9865   -0.1417  -35.3548 F   0  0  0  0  0  0  0  0  0  0  0  0
  -28.1397    1.6944  -34.6005 F   0  0  0  0  0  0  0  0  0  0  0  0
  -26.7678    0.6586  -32.3745 C   0  0  0  0  0  0  0  0  0  0  0  0
  -25.9353    2.2272  -29.6560 N   0  0  0  0  0  0  0  0  0  0  0  0
  -25.0950    2.9680  -28.9182 C   0  0  0  0  0  0  0  0  0  0  0  0
  -25.5980    4.0894  -28.2471 C   0  0  0  0  0  0  0  0  0  0  0  0
  -24.8367    4.9027  -27.4466 C   0  0  0  0  0  0  0  0  0  0  0  0
  -25.5719    6.4236  -26.5526 Br  0  0  0  0  0  0  0  0  0  0  0  0
  -23.5109    4.5559  -27.3269 C   0  0  0  0  0  0  0  0  0  0  0  0
  -22.9748    3.4627  -27.9692 C   0  0  0  0  0  0  0  0  0  0  0  0
  -23.7548    2.6569  -28.7736 C   0  0  0  0  0  0  0  0  0  0  0  0
  1  2  2  0
  2  3  1  0
  3  4  1  0
  4  5  1  0
  5  6  2  0
  6  7  1  0
  7  8  2  0
  8  9  1  0
  9 10  2  0
  4 11  1  0
 11 12  1  0
  2 13  1  0
 13 14  2  0
 14 15  1  0
 15 16  1  0
 16 17  1  0
 17 18  1  0
 18 19  1  0
 19 20  1  0
 20 21  1  0
 21 22  1  0
 22 23  1  0
 23 24  1  0
 24 25  1  0
 19 26  1  0
 26 27  1  0
 14 28  1  0
 28 29  1  0
 29 30  2  0
 30 31  1  0
 31 32  2  0
 32 33  1  0
 33 34  1  0
 34 35  1  0
 34 36  1  0
 34 37  1  0
 33 38  2  0
 28 39  2  0
 39 40  1  0
 40 41  2  0
 41 42  1  0
 42 43  1  0
 42 44  2  0
 44 45  1  0
 45 46  2  0
 12  4  1  0
 46 13  1  0
 10  5  1  0
 27 16  1  0
 38 29  1  0
 46 40  1  0
 25 20  1  0
M  END
$$$$
