
     RDKit          3D

 15 17  0  0  0  0  0  0  0  0999 V2000
  -17.4665   18.7337  -33.4227 O   0  0  0  0  0  0  0  0  0  0  0  0
  -17.5073   17.5029  -33.0929 C   0  0  0  0  0  0  0  0  0  0  0  0
  -18.6832   16.8690  -33.1516 N   0  0  0  0  0  0  0  0  0  0  0  0
  -18.7666   15.5802  -32.8144 C   0  0  0  0  0  0  0  0  0  0  0  0
  -19.9812   14.9233  -32.8744 C   0  0  0  0  0  0  0  0  0  0  0  0
  -20.0860   13.5996  -32.5319 C   0  0  0  0  0  0  0  0  0  0  0  0
  -18.9370   12.9313  -32.1210 C   0  0  0  0  0  0  0  0  0  0  0  0
  -17.7145   13.5626  -32.0524 C   0  0  0  0  0  0  0  0  0  0  0  0
  -17.6130   14.8792  -32.3937 C   0  0  0  0  0  0  0  0  0  0  0  0
  -16.4054   15.5317  -32.3338 C   0  0  0  0  0  0  0  0  0  0  0  0
  -15.2887   14.8718  -31.9317 C   0  0  0  0  0  0  0  0  0  0  0  0
  -14.0832   15.5591  -31.8818 C   0  0  0  0  0  0  0  0  0  0  0  0
  -13.9993   16.9006  -32.2335 C   0  0  0  0  0  0  0  0  0  0  0  0
  -15.1405   17.5571  -32.6395 C   0  0  0  0  0  0  0  0  0  0  0  0
  -16.3440   16.8942  -32.6956 C   0  0  0  0  0  0  0  0  0  0  0  0
  1  2  2  0
  2  3  1  0
  3  4  1  0
  4  5  2  0
  5  6  1  0
  6  7  2  0
  7  8  1  0
  8  9  2  0
  9 10  1  0
 10 11  2  0
 11 12  1  0
 12 13  2  0
 13 14  1  0
 14 15  2  0
 15  2  1  0
  9  4  1  0
 15 10  1  0
M  END
$$$$
