
     RDKit          3D

 36 40  0  0  0  0  0  0  0  0999 V2000
  -11.7740   42.3985  -15.2704 C   0  0  0  0  0  0  0  0  0  0  0  0
  -11.9745   43.2606  -16.3431 O   0  0  0  0  0  0  0  0  0  0  0  0
  -12.9491   43.1707  -17.2992 C   0  0  0  0  0  0  0  0  0  0  0  0
  -13.6882   41.9801  -17.3204 C   0  0  0  0  0  0  0  0  0  0  0  0
  -14.6811   41.8316  -18.2585 C   0  0  0  0  0  0  0  0  0  0  0  0
  -14.9805   42.7995  -19.1735 C   0  0  0  0  0  0  0  0  0  0  0  0
  -16.0417   42.6280  -20.1691 C   0  0  0  0  0  0  0  0  0  0  0  0
  -16.3151   43.7416  -20.9141 N   0  0  0  0  0  0  0  0  0  0  0  0
  -17.2880   43.6134  -21.8445 C   0  0  0  0  0  0  0  0  0  0  0  0
  -17.6732   44.7211  -22.6614 N   0  0  0  0  0  0  0  0  0  0  0  0
  -18.5497   44.4943  -23.7766 C   0  0  0  0  0  0  0  0  0  0  0  0
  -19.0933   45.8510  -24.2447 C   0  0  0  0  0  0  0  0  0  0  0  0
  -18.0221   46.6848  -24.5354 O   0  0  0  0  0  0  0  0  0  0  0  0
  -17.3714   47.0660  -23.3914 C   0  0  0  0  0  0  0  0  0  0  0  0
  -17.1935   46.0230  -22.3512 C   0  0  0  0  0  0  0  0  0  0  0  0
  -17.9386   42.3856  -21.9885 C   0  0  0  0  0  0  0  0  0  0  0  0
  -19.2248   41.8288  -23.0762 S   0  0  0  0  0  0  0  0  0  0  0  0
  -19.3045   40.1027  -22.4341 C   0  0  0  0  0  0  0  0  0  0  0  0
  -20.2019   39.0519  -22.9278 C   0  0  0  0  0  0  0  0  0  0  0  0
  -19.4408   37.9876  -23.5061 N   0  0  0  0  0  0  0  0  0  0  0  0
  -18.7209   38.2087  -24.7424 C   0  0  0  0  0  0  0  0  0  0  0  0
  -19.3751   36.7323  -22.8499 C   0  0  0  0  0  0  0  0  0  0  0  0
  -20.1095   36.5245  -21.7178 N   0  0  0  0  0  0  0  0  0  0  0  0
  -20.0611   35.3694  -21.0546 C   0  0  0  0  0  0  0  0  0  0  0  0
  -19.2678   34.3177  -21.4710 C   0  0  0  0  0  0  0  0  0  0  0  0
  -19.2201   33.1022  -20.7164 C   0  0  0  0  0  0  0  0  0  0  0  0
  -19.9060   33.0119  -19.6700 O   0  0  0  0  0  0  0  0  0  0  0  0
  -18.4371   32.0037  -21.0911 N   0  0  0  0  0  0  0  0  0  0  0  0
  -18.4938   30.8071  -20.4159 O   0  0  0  0  0  0  0  0  0  0  0  0
  -18.5258   34.5210  -22.6105 C   0  0  0  0  0  0  0  0  0  0  0  0
  -18.6059   35.7235  -23.2608 N   0  0  0  0  0  0  0  0  0  0  0  0
  -18.3449   40.1485  -21.4680 C   0  0  0  0  0  0  0  0  0  0  0  0
  -17.6685   41.2871  -21.2527 C   0  0  0  0  0  0  0  0  0  0  0  0
  -16.6601   41.4675  -20.3074 N   0  0  0  0  0  0  0  0  0  0  0  0
  -14.2406   43.9501  -19.1262 C   0  0  0  0  0  0  0  0  0  0  0  0
  -13.2491   44.1118  -18.1992 N   0  0  0  0  0  0  0  0  0  0  0  0
  1  2  1  0
  2  3  1  0
  3  4  2  0
  4  5  1  0
  5  6  2  0
  6  7  1  0
  7  8  2  0
  8  9  1  0
  9 10  1  0
 10 11  1  0
 11 12  1  0
 12 13  1  0
 13 14  1  0
 14 15  1  0
  9 16  2  0
 16 17  1  0
 17 18  1  0
 18 19  1  0
 19 20  1  0
 20 21  1  0
 20 22  1  0
 22 23  2  0
 23 24  1  0
 24 25  2  0
 25 26  1  0
 26 27  2  0
 26 28  1  0
 28 29  1  0
 25 30  1  0
 30 31  2  0
 18 32  2  0
 32 33  1  0
 33 34  2  0
  6 35  1  0
 35 36  2  0
 36  3  1  0
 34  7  1  0
 15 10  1  0
 33 16  1  0
 31 22  1  0
M  END
$$$$
