
     RDKit          3D

 31 34  0  0  0  0  0  0  0  0999 V2000
  -34.3821   13.1345  -22.4937 C   0  0  0  0  0  0  0  0  0  0  0  0
  -33.1194   12.8798  -23.0654 O   0  0  0  0  0  0  0  0  0  0  0  0
  -32.5576   13.8359  -23.9053 C   0  0  0  0  0  0  0  0  0  0  0  0
  -31.5888   13.5415  -24.8411 C   0  0  0  0  0  0  0  0  0  0  0  0
  -31.0495   14.5107  -25.6610 C   0  0  0  0  0  0  0  0  0  0  0  0
  -31.4604   15.8374  -25.5812 C   0  0  0  0  0  0  0  0  0  0  0  0
  -30.8779   16.8203  -26.4500 C   0  0  0  0  0  0  0  0  0  0  0  0
  -30.8529   16.6378  -27.8173 C   0  0  0  0  0  0  0  0  0  0  0  0
  -30.3315   17.5137  -28.6387 O   0  0  0  0  0  0  0  0  0  0  0  0
  -29.7843   18.6480  -28.2282 C   0  0  0  0  0  0  0  0  0  0  0  0
  -29.2414   19.5618  -29.0766 C   0  0  0  0  0  0  0  0  0  0  0  0
  -28.6541   20.7729  -28.6784 C   0  0  0  0  0  0  0  0  0  0  0  0
  -28.1695   21.5672  -29.5616 O   0  0  0  0  0  0  0  0  0  0  0  0
  -27.6604   22.3675  -30.4429 C   0  0  2  0  0  0  0  0  0  0  0  0
  -26.2343   22.3915  -30.5156 O   0  0  0  0  0  0  0  0  0  0  0  0
  -25.9197   22.8197  -31.7981 C   0  0  2  0  0  0  0  0  0  0  0  0
  -24.4740   22.5409  -32.1496 C   0  0  0  0  0  0  0  0  0  0  0  0
  -24.4179   22.1554  -33.4801 O   0  0  0  0  0  0  0  0  0  0  0  0
  -26.2209   24.3006  -31.8767 C   0  0  1  0  0  0  0  0  0  0  0  0
  -25.7847   24.8724  -33.0547 O   0  0  0  0  0  0  0  0  0  0  0  0
  -27.7394   24.4318  -31.7496 C   0  0  2  0  0  0  0  0  0  0  0  0
  -28.1575   25.7388  -31.8798 O   0  0  0  0  0  0  0  0  0  0  0  0
  -28.1380   23.8226  -30.4242 C   0  0  1  0  0  0  0  0  0  0  0  0
  -29.5203   23.7967  -30.3050 O   0  0  0  0  0  0  0  0  0  0  0  0
  -28.6508   21.0135  -27.2912 C   0  0  0  0  0  0  0  0  0  0  0  0
  -29.1978   20.0931  -26.4333 C   0  0  0  0  0  0  0  0  0  0  0  0
  -29.7622   18.9191  -26.8770 C   0  0  0  0  0  0  0  0  0  0  0  0
  -30.3084   18.0035  -26.0061 C   0  0  0  0  0  0  0  0  0  0  0  0
  -30.2833   18.2579  -24.7888 O   0  0  0  0  0  0  0  0  0  0  0  0
  -32.4331   16.1228  -24.6389 C   0  0  0  0  0  0  0  0  0  0  0  0
  -32.9710   15.1524  -23.8202 C   0  0  0  0  0  0  0  0  0  0  0  0
  1  2  1  0
  2  3  1  0
  3  4  2  0
  4  5  1  0
  5  6  2  0
  6  7  1  0
  7  8  2  0
  8  9  1  0
  9 10  1  0
 10 11  2  0
 11 12  1  0
 12 13  1  0
 14 13  1  1
 14 15  1  0
 15 16  1  0
 16 17  1  1
 17 18  1  0
 16 19  1  0
 19 20  1  6
 19 21  1  0
 21 22  1  1
 21 23  1  0
 23 24  1  6
 12 25  2  0
 25 26  1  0
 26 27  2  0
 27 28  1  0
 28 29  2  0
  6 30  1  0
 30 31  2  0
 31  3  1  0
 28  7  1  0
 27 10  1  0
 23 14  1  0
M  END
$$$$
