
     RDKit          3D

 17 17  0  0  0  0  0  0  0  0999 V2000
  -21.3560   39.9151  -21.5684 C   0  0  0  0  0  0  0  0  0  0  0  0
  -20.2023   39.1532  -21.2681 O   0  0  0  0  0  0  0  0  0  0  0  0
  -18.9355   39.7129  -21.2441 C   0  0  0  0  0  0  0  0  0  0  0  0
  -18.6669   40.6834  -20.3230 C   0  0  0  0  0  0  0  0  0  0  0  0
  -17.4392   41.2628  -20.2600 C   0  0  0  0  0  0  0  0  0  0  0  0
  -16.4840   40.8540  -21.1357 C   0  0  0  0  0  0  0  0  0  0  0  0
  -16.7578   39.8774  -22.0613 C   0  0  0  0  0  0  0  0  0  0  0  0
  -17.9796   39.2484  -22.1796 C   0  0  0  0  0  0  0  0  0  0  0  0
  -18.2648   38.3044  -23.0618 O   0  0  0  0  0  0  0  0  0  0  0  0
  -18.0639   37.0477  -23.4027 C   0  0  0  0  0  0  0  0  0  0  0  0
  -18.9606   35.9255  -23.0021 C   0  0  0  0  0  0  0  0  0  0  0  0
  -20.1935   36.1890  -23.6541 O   0  0  0  0  0  0  0  0  0  0  0  0
  -18.4885   34.5452  -23.1742 C   0  0  0  0  0  0  0  0  0  0  0  0
  -18.7571   33.6936  -22.0830 O   0  0  0  0  0  0  0  0  0  0  0  0
  -19.9435   33.1103  -21.7493 C   0  0  0  0  0  0  0  0  0  0  0  0
  -20.0779   32.3599  -20.5287 N   0  0  0  0  0  0  0  0  0  0  0  0
  -20.9353   33.2168  -22.4972 O   0  0  0  0  0  0  0  0  0  0  0  0
  1  2  1  0
  2  3  1  0
  3  4  2  0
  4  5  1  0
  5  6  2  0
  6  7  1  0
  7  8  2  0
  8  9  1  0
  9 10  1  0
 10 11  1  0
 11 12  1  0
 11 13  1  0
 13 14  1  0
 14 15  1  0
 15 16  1  0
 15 17  2  0
  8  3  1  0
M  END
$$$$
