
     RDKit          3D

 23 25  0  0  0  0  0  0  0  0999 V2000
  -21.2051   40.8488  -26.7284 C   0  0  0  0  0  0  0  0  0  0  0  0
  -20.1385   41.7525  -26.4900 O   0  0  0  0  0  0  0  0  0  0  0  0
  -19.3661   41.5687  -25.3386 C   0  0  0  0  0  0  0  0  0  0  0  0
  -19.3136   40.3607  -24.6928 C   0  0  0  0  0  0  0  0  0  0  0  0
  -18.5405   40.1617  -23.5331 C   0  0  0  0  0  0  0  0  0  0  0  0
  -18.5396   38.8560  -22.9121 C   0  0  0  0  0  0  0  0  0  0  0  0
  -18.7682   37.7798  -23.6634 O   0  0  0  0  0  0  0  0  0  0  0  0
  -18.7883   36.5609  -23.1986 C   0  0  0  0  0  0  0  0  0  0  0  0
  -19.0350   35.4757  -24.0455 C   0  0  0  0  0  0  0  0  0  0  0  0
  -19.0622   34.1790  -23.5832 C   0  0  0  0  0  0  0  0  0  0  0  0
  -19.3177   33.1685  -24.5132 O   0  0  0  0  0  0  0  0  0  0  0  0
  -18.8454   33.9109  -22.2620 C   0  0  0  0  0  0  0  0  0  0  0  0
  -18.6009   34.9648  -21.4123 C   0  0  0  0  0  0  0  0  0  0  0  0
  -18.3740   34.7501  -20.0610 O   0  0  0  0  0  0  0  0  0  0  0  0
  -18.5718   36.2831  -21.8746 C   0  0  0  0  0  0  0  0  0  0  0  0
  -18.3290   37.3422  -21.0369 C   0  0  0  0  0  0  0  0  0  0  0  0
  -18.1227   37.1574  -19.8131 O   0  0  0  0  0  0  0  0  0  0  0  0
  -18.3192   38.6353  -21.5934 C   0  0  0  0  0  0  0  0  0  0  0  0
  -18.0700   39.6492  -20.6990 O   0  0  0  0  0  0  0  0  0  0  0  0
  -17.8550   41.2563  -23.1082 C   0  0  0  0  0  0  0  0  0  0  0  0
  -17.9032   42.4971  -23.7638 C   0  0  0  0  0  0  0  0  0  0  0  0
  -18.6643   42.6652  -24.8922 C   0  0  0  0  0  0  0  0  0  0  0  0
  -18.7234   43.8935  -25.5567 O   0  0  0  0  0  0  0  0  0  0  0  0
  1  2  1  0
  2  3  1  0
  3  4  2  0
  4  5  1  0
  5  6  1  0
  6  7  1  0
  7  8  1  0
  8  9  2  0
  9 10  1  0
 10 11  1  0
 10 12  2  0
 12 13  1  0
 13 14  1  0
 13 15  2  0
 15 16  1  0
 16 17  2  0
 16 18  1  0
 18 19  1  0
  5 20  2  0
 20 21  1  0
 21 22  2  0
 22 23  1  0
 22  3  1  0
 18  6  2  0
 15  8  1  0
M  END
$$$$
