
     RDKit          3D

 29 32  0  0  0  0  0  0  0  0999 V2000
  -13.1536   12.3802  -29.1863 F   0  0  0  0  0  0  0  0  0  0  0  0
  -13.2582   12.8455  -30.4817 C   0  0  0  0  0  0  0  0  0  0  0  0
  -12.0259   12.9678  -31.0808 F   0  0  0  0  0  0  0  0  0  0  0  0
  -14.0628   11.9556  -31.1888 F   0  0  0  0  0  0  0  0  0  0  0  0
  -13.9236   14.1707  -30.5281 C   0  0  0  0  0  0  0  0  0  0  0  0
  -13.7403   14.9503  -31.6454 C   0  0  0  0  0  0  0  0  0  0  0  0
  -14.3220   16.1748  -31.7525 C   0  0  0  0  0  0  0  0  0  0  0  0
  -15.1158   16.6364  -30.7038 C   0  0  0  0  0  0  0  0  0  0  0  0
  -15.7721   17.9758  -30.7882 C   0  0  0  0  0  0  0  0  0  0  0  0
  -16.4471   18.1260  -32.0770 N   0  0  0  0  0  0  0  0  0  0  0  0
  -17.7365   17.5287  -32.2397 C   0  0  0  0  0  0  0  0  0  0  0  0
  -18.1553   16.5667  -31.3355 C   0  0  0  0  0  0  0  0  0  0  0  0
  -19.4162   15.9778  -31.4873 C   0  0  0  0  0  0  0  0  0  0  0  0
  -20.2504   16.3309  -32.5123 C   0  0  0  0  0  0  0  0  0  0  0  0
  -21.5693   15.7044  -32.6387 C   0  0  0  0  0  0  0  0  0  0  0  0
  -22.6770   16.5227  -32.1209 C   0  0  0  0  0  0  0  0  0  0  0  0
  -23.2836   17.5423  -32.8515 C   0  0  0  0  0  0  0  0  0  0  0  0
  -24.2361   18.0772  -32.0735 N   0  0  0  0  0  0  0  0  0  0  0  0
  -24.2753   17.4576  -30.8836 C   0  0  0  0  0  0  0  0  0  0  0  0
  -25.0611   17.6571  -29.8089 N   0  0  0  0  0  0  0  0  0  0  0  0
  -24.9270   16.8982  -28.6889 C   0  0  0  0  0  0  0  0  0  0  0  0
  -23.9632   15.9153  -28.6803 C   0  0  0  0  0  0  0  0  0  0  0  0
  -23.7936   14.9394  -27.2358 Cl  0  0  0  0  0  0  0  0  0  0  0  0
  -23.1345   15.6828  -29.7737 C   0  0  0  0  0  0  0  0  0  0  0  0
  -23.3057   16.4811  -30.8957 C   0  0  0  0  0  0  0  0  0  0  0  0
  -19.7907   17.2920  -33.3873 C   0  0  0  0  0  0  0  0  0  0  0  0
  -18.5665   17.8657  -33.2426 N   0  0  0  0  0  0  0  0  0  0  0  0
  -15.2899   15.8448  -29.5915 C   0  0  0  0  0  0  0  0  0  0  0  0
  -14.6902   14.6426  -29.5409 N   0  0  0  0  0  0  0  0  0  0  0  0
  1  2  1  0
  2  3  1  0
  2  4  1  0
  2  5  1  0
  5  6  2  0
  6  7  1  0
  7  8  2  0
  8  9  1  0
  9 10  1  0
 10 11  1  0
 11 12  2  0
 12 13  1  0
 13 14  2  0
 14 15  1  0
 15 16  1  0
 16 17  2  0
 17 18  1  0
 18 19  1  0
 19 20  2  0
 20 21  1  0
 21 22  2  0
 22 23  1  0
 22 24  1  0
 24 25  2  0
 14 26  1  0
 26 27  2  0
  8 28  1  0
 28 29  2  0
 29  5  1  0
 27 11  1  0
 25 16  1  0
 25 19  1  0
M  END
$$$$
