
     RDKit          3D

 21 23  0  0  0  0  0  0  0  0999 V2000
  -21.4639   32.6225  -20.8779 N   0  0  0  0  0  0  0  0  0  0  0  0
  -20.0999   32.9459  -21.8843 S   0  0  0  0  0  6  0  0  0  0  0  0
  -19.7458   31.6424  -22.5856 O   0  0  0  0  0  0  0  0  0  0  0  0
  -18.9045   33.3011  -21.0455 O   0  0  0  0  0  0  0  0  0  0  0  0
  -20.4655   34.1545  -23.0049 O   0  0  0  0  0  0  0  0  0  0  0  0
  -20.0633   35.4745  -22.8787 C   0  0  0  0  0  0  0  0  0  0  0  0
  -19.5880   36.1379  -23.9945 C   0  0  0  0  0  0  0  0  0  0  0  0
  -19.1768   37.4460  -23.9237 C   0  0  0  0  0  0  0  0  0  0  0  0
  -19.2276   38.1288  -22.7412 C   0  0  0  0  0  0  0  0  0  0  0  0
  -18.8345   39.4353  -22.5944 C   0  0  0  0  0  0  0  0  0  0  0  0
  -18.9126   40.0605  -21.3739 C   0  0  0  0  0  0  0  0  0  0  0  0
  -19.3927   39.3537  -20.2987 C   0  0  0  0  0  0  0  0  0  0  0  0
  -19.4785   39.9072  -19.1466 O   0  0  0  0  0  0  0  0  0  0  0  0
  -19.7652   38.1069  -20.4503 O   0  0  0  0  0  0  0  0  0  0  0  0
  -19.6981   37.4879  -21.6142 C   0  0  0  0  0  0  0  0  0  0  0  0
  -20.1105   36.1674  -21.6973 C   0  0  0  0  0  0  0  0  0  0  0  0
  -18.5245   41.4566  -21.0708 C   0  0  0  0  0  0  0  0  0  0  0  0
  -17.0737   41.6236  -21.4697 C   0  0  0  0  0  0  0  0  0  0  0  0
  -16.8397   41.7312  -22.9318 C   0  0  0  0  0  0  0  0  0  0  0  0
  -18.0045   41.4302  -23.8093 C   0  0  0  0  0  0  0  0  0  0  0  0
  -18.3605   39.9656  -23.9001 C   0  0  0  0  0  0  0  0  0  0  0  0
  1  2  1  0
  2  3  2  0
  2  4  2  0
  2  5  1  0
  5  6  1  0
  6  7  2  0
  7  8  1  0
  8  9  2  0
  9 10  1  0
 10 11  2  0
 11 12  1  0
 12 13  2  0
 12 14  1  0
 14 15  1  0
 15 16  2  0
 11 17  1  0
 17 18  1  0
 18 19  1  0
 19 20  1  0
 20 21  1  0
 16  6  1  0
 15  9  1  0
 21 10  1  0
M  END
$$$$
