
     RDKit          3D

 23 24  0  0  0  0  0  0  0  0999 V2000
  -11.3890   -5.1265  -32.5070 C   0  0  0  0  0  0  0  0  0  0  0  0
  -11.9459   -3.8885  -32.1555 O   0  0  0  0  0  0  0  0  0  0  0  0
  -13.1107   -3.4925  -32.6369 N   0  0  0  0  0  0  0  0  0  0  0  0
  -13.7423   -2.3357  -32.4892 C   0  0  0  0  0  0  0  0  0  0  0  0
  -15.1064   -2.4648  -31.9655 C   0  0  0  0  0  0  0  0  0  0  0  0
  -15.5386   -2.0276  -30.9163 O   0  0  0  0  0  0  0  0  0  0  0  0
  -16.0282   -3.1859  -32.7839 O   0  0  0  0  0  0  0  0  0  0  0  0
  -17.0169   -3.9339  -32.0694 C   0  0  0  0  0  0  0  0  0  0  0  0
  -12.9323   -1.1447  -32.5803 C   0  0  0  0  0  0  0  0  0  0  0  0
  -11.8437   -1.0909  -33.4857 C   0  0  0  0  0  0  0  0  0  0  0  0
  -11.0351    0.0059  -33.6589 C   0  0  0  0  0  0  0  0  0  0  0  0
  -11.2723    1.1281  -32.9234 C   0  0  0  0  0  0  0  0  0  0  0  0
  -12.2998    1.1742  -32.0320 C   0  0  0  0  0  0  0  0  0  0  0  0
  -13.1150    0.0108  -31.8961 C   0  0  0  0  0  0  0  0  0  0  0  0
  -14.4529    0.3568  -31.2531 C   0  0  0  0  0  0  0  0  0  0  0  0
  -15.2884    0.7721  -32.3970 O   0  0  0  0  0  0  0  0  0  0  0  0
  -16.5748    1.2032  -32.2543 C   0  0  0  0  0  0  0  0  0  0  0  0
  -17.1107    1.7325  -31.1053 C   0  0  0  0  0  0  0  0  0  0  0  0
  -18.4123    2.1710  -30.9799 C   0  0  0  0  0  0  0  0  0  0  0  0
  -19.2247    2.0608  -32.1033 C   0  0  0  0  0  0  0  0  0  0  0  0
  -18.6928    1.5249  -33.2707 C   0  0  0  0  0  0  0  0  0  0  0  0
  -17.3975    1.0898  -33.3909 C   0  0  0  0  0  0  0  0  0  0  0  0
  -16.8576    0.4965  -34.6399 C   0  0  0  0  0  0  0  0  0  0  0  0
  1  2  1  0
  2  3  1  0
  3  4  2  0
  4  5  1  0
  5  6  2  0
  5  7  1  0
  7  8  1  0
  4  9  1  0
  9 10  2  0
 10 11  1  0
 11 12  2  0
 12 13  1  0
 13 14  2  0
 14 15  1  0
 15 16  1  0
 16 17  1  0
 17 18  2  0
 18 19  1  0
 19 20  2  0
 20 21  1  0
 21 22  2  0
 22 23  1  0
 14  9  1  0
 22 17  1  0
M  END
$$$$
