
     RDKit          3D

 28 30  0  0  0  0  0  0  0  0999 V2000
  -22.6431   20.9294  -35.1090 C   0  0  0  0  0  0  0  0  0  0  0  0
  -22.1609   19.9081  -35.9420 O   0  0  0  0  0  0  0  0  0  0  0  0
  -22.9384   18.8788  -36.4292 C   0  0  0  0  0  0  0  0  0  0  0  0
  -24.1522   19.0557  -36.6021 O   0  0  0  0  0  0  0  0  0  0  0  0
  -22.3398   17.5956  -36.7379 C   0  0  0  0  0  0  0  0  0  0  0  0
  -23.2071   16.1571  -37.3072 S   0  0  0  0  0  0  0  0  0  0  0  0
  -21.7221   15.1001  -37.4150 C   0  0  0  0  0  0  0  0  0  0  0  0
  -20.7343   15.9329  -37.0144 C   0  0  0  0  0  0  0  0  0  0  0  0
  -21.0274   17.1847  -36.6725 C   0  0  0  0  0  0  0  0  0  0  0  0
  -19.7982   18.3711  -36.1244 S   0  0  0  0  0  6  0  0  0  0  0  0
  -18.4652   17.9539  -36.7096 O   0  0  0  0  0  0  0  0  0  0  0  0
  -20.1055   19.7315  -36.6769 O   0  0  0  0  0  0  0  0  0  0  0  0
  -19.7097   18.4108  -34.4064 N   0  0  0  0  0  0  0  0  0  0  0  0
  -19.0511   17.4138  -33.6694 C   0  0  0  0  0  0  0  0  0  0  0  0
  -19.4376   16.1092  -33.7463 C   0  0  0  0  0  0  0  0  0  0  0  0
  -18.7722   15.1158  -33.0130 C   0  0  0  0  0  0  0  0  0  0  0  0
  -17.7125   15.4692  -32.2043 C   0  0  0  0  0  0  0  0  0  0  0  0
  -17.0214   14.4787  -31.4787 N   0  0  0  0  0  0  0  0  0  0  0  0
  -15.6427   14.1961  -31.6742 C   0  0  0  0  0  0  0  0  0  0  0  0
  -14.9024   15.0172  -32.5334 C   0  0  0  0  0  0  0  0  0  0  0  0
  -13.5672   14.8120  -32.8013 C   0  0  0  0  0  0  0  0  0  0  0  0
  -12.9344   13.7513  -32.1958 C   0  0  0  0  0  0  0  0  0  0  0  0
  -13.6313   12.9175  -31.3411 C   0  0  0  0  0  0  0  0  0  0  0  0
  -14.9767   13.1441  -31.0866 C   0  0  0  0  0  0  0  0  0  0  0  0
  -17.3260   16.7789  -32.1291 C   0  0  0  0  0  0  0  0  0  0  0  0
  -17.9964   17.7550  -32.8629 C   0  0  0  0  0  0  0  0  0  0  0  0
  -17.5574   19.0723  -32.7451 O   0  0  0  0  0  0  0  0  0  0  0  0
  -17.9636   19.8741  -31.6687 C   0  0  0  0  0  0  0  0  0  0  0  0
  1  2  1  0
  2  3  1  0
  3  4  2  0
  3  5  1  0
  5  6  1  0
  6  7  1  0
  7  8  2  0
  8  9  1  0
  9 10  1  0
 10 11  2  0
 10 12  2  0
 10 13  1  0
 13 14  1  0
 14 15  2  0
 15 16  1  0
 16 17  2  0
 17 18  1  0
 18 19  1  0
 19 20  2  0
 20 21  1  0
 21 22  2  0
 22 23  1  0
 23 24  2  0
 17 25  1  0
 25 26  2  0
 26 27  1  0
 27 28  1  0
  9  5  2  0
 26 14  1  0
 24 19  1  0
M  END
$$$$
