
     RDKit          3D

 29 32  0  0  0  0  0  0  0  0999 V2000
  -17.5683   34.8667  -22.8124 C   0  0  0  0  0  0  0  0  0  0  0  0
  -17.5923   36.1525  -22.0522 C   0  0  0  0  0  0  0  0  0  0  0  0
  -16.5828   36.8975  -22.0168 O   0  0  0  0  0  0  0  0  0  0  0  0
  -18.7180   36.5662  -21.3651 O   0  0  0  0  0  0  0  0  0  0  0  0
  -18.7535   37.8859  -20.8165 C   0  0  0  0  0  0  0  0  0  0  0  0
  -18.8859   38.8762  -21.9101 C   0  0  0  0  0  0  0  0  0  0  0  0
  -18.5257   38.5442  -23.0492 O   0  0  0  0  0  0  0  0  0  0  0  0
  -19.4260   40.2435  -21.7515 C   0  0  1  0  0  0  0  0  0  0  0  0
  -20.6751   40.2733  -22.4063 O   0  0  0  0  0  0  0  0  0  0  0  0
  -19.5784   40.5271  -20.2479 C   0  0  0  0  0  0  0  0  0  0  0  0
  -18.3361   41.4272  -19.9852 C   0  0  0  0  0  0  0  0  0  0  0  0
  -18.5282   42.3073  -21.1363 C   0  0  1  0  0  0  0  0  0  0  0  0
  -17.5964   43.3793  -21.4735 C   0  0  2  0  0  0  0  0  0  0  0  0
  -16.9957   44.1002  -20.2959 C   0  0  0  0  0  0  0  0  0  0  0  0
  -16.0592   45.1513  -20.8577 C   0  0  0  0  0  0  0  0  0  0  0  0
  -16.9321   46.1323  -21.5542 C   0  0  0  0  0  0  0  0  0  0  0  0
  -16.8583   47.3863  -21.1517 C   0  0  0  0  0  0  0  0  0  0  0  0
  -17.6798   48.4002  -21.7837 C   0  0  0  0  0  0  0  0  0  0  0  0
  -17.7006   49.5517  -21.2934 O   0  0  0  0  0  0  0  0  0  0  0  0
  -18.4577   48.0149  -22.9874 C   0  0  0  0  0  0  0  0  0  0  0  0
  -18.9536   46.6163  -22.8436 C   0  0  0  0  0  0  0  0  0  0  0  0
  -17.8015   45.6226  -22.6303 C   0  0  1  0  0  0  0  0  0  0  0  0
  -16.9611   45.7317  -23.9089 C   0  0  0  0  0  0  0  0  0  0  0  0
  -18.3877   44.3033  -22.3905 C   0  0  1  0  0  0  0  0  0  0  0  0
  -18.7199   43.5002  -23.6246 C   0  0  1  0  0  0  0  0  0  0  0  0
  -17.6476   43.4457  -24.5218 O   0  0  0  0  0  0  0  0  0  0  0  0
  -19.3137   42.1636  -23.3756 C   0  0  0  0  0  0  0  0  0  0  0  0
  -18.5871   41.3444  -22.3203 C   0  0  2  0  0  0  0  0  0  0  0  0
  -17.2674   40.8572  -22.7844 C   0  0  0  0  0  0  0  0  0  0  0  0
  1  2  1  0
  2  3  2  0
  2  4  1  0
  4  5  1  0
  5  6  1  0
  6  7  2  0
  6  8  1  0
  8  9  1  6
  8 10  1  0
 10 11  1  0
 12 11  1  1
 12 13  1  0
 13 14  1  1
 14 15  1  0
 15 16  1  0
 16 17  2  0
 17 18  1  0
 18 19  2  0
 18 20  1  0
 20 21  1  0
 21 22  1  0
 22 23  1  6
 22 24  1  0
 24 25  1  6
 25 26  1  1
 25 27  1  0
 27 28  1  0
 28 29  1  6
 28  8  1  0
 28 12  1  0
 24 13  1  0
 22 16  1  0
M  END
$$$$
