
     RDKit          3D

 22 25  0  0  0  0  0  0  0  0999 V2000
  -18.2960   39.7321  -19.7428 N   0  0  0  0  0  0  0  0  0  0  0  0
  -17.9854   40.6805  -20.2798 C   0  0  0  0  0  0  0  0  0  0  0  0
  -17.6052   41.8974  -20.9731 C   0  0  2  0  0  0  0  0  0  0  0  0
  -18.6877   42.9561  -20.9069 C   0  0  0  0  0  0  0  0  0  0  0  0
  -18.2663   43.8748  -22.0363 C   0  0  0  0  0  0  0  0  0  0  0  0
  -17.3187   43.0666  -22.8977 C   0  0  0  0  0  0  0  0  0  0  0  0
  -17.4987   41.7285  -22.4024 N   0  0  0  0  0  0  0  0  0  0  0  0
  -17.5638   40.5023  -23.1012 C   0  0  0  0  0  0  0  0  0  0  0  0
  -17.3823   40.4308  -24.3578 O   0  0  0  0  0  0  0  0  0  0  0  0
  -17.8473   39.2059  -22.4321 C   0  0  0  0  0  0  0  0  0  0  0  0
  -17.7261   38.0858  -23.2875 N   0  0  0  0  0  0  0  0  0  0  0  0
  -18.2250   36.8551  -22.8069 C   0  0  0  0  0  0  0  0  0  0  0  0
  -17.4938   36.5413  -21.4966 C   0  0  0  0  0  0  0  0  0  0  0  0
  -18.0429   35.3156  -20.8434 C   0  0  0  0  0  0  0  0  0  0  0  0
  -17.8130   34.1491  -21.8026 C   0  0  0  0  0  0  0  0  0  0  0  0
  -18.5607   34.4347  -23.0669 C   0  0  0  0  0  0  0  0  0  0  0  0
  -20.0421   34.5539  -22.8007 C   0  0  0  0  0  0  0  0  0  0  0  0
  -20.2526   35.7207  -21.8820 C   0  0  0  0  0  0  0  0  0  0  0  0
  -21.6034   35.9380  -21.6183 O   0  0  0  0  0  0  0  0  0  0  0  0
  -19.5265   35.4520  -20.5902 C   0  0  0  0  0  0  0  0  0  0  0  0
  -19.7047   37.0076  -22.4650 C   0  0  0  0  0  0  0  0  0  0  0  0
  -18.1096   35.6984  -23.7528 C   0  0  0  0  0  0  0  0  0  0  0  0
  1  2  3  0
  3  2  1  1
  3  4  1  0
  4  5  1  0
  5  6  1  0
  6  7  1  0
  7  8  1  0
  8  9  2  0
  8 10  1  0
 10 11  1  0
 11 12  1  0
 12 13  1  0
 13 14  1  0
 14 15  1  0
 15 16  1  0
 16 17  1  0
 17 18  1  0
 18 19  1  0
 18 20  1  0
 18 21  1  0
 16 22  1  0
  7  3  1  0
 21 12  1  0
 22 12  1  0
 20 14  1  0
M  END
$$$$
