
     RDKit          3D

 30 32  0  0  0  0  0  0  0  0999 V2000
  -20.1502   13.6667  -34.2505 C   0  0  0  0  0  0  0  0  0  0  0  0
  -20.8697   14.6815  -34.9719 N   0  0  0  0  0  0  0  0  0  0  0  0
  -20.9912   14.4313  -36.3756 C   0  0  0  0  0  0  0  0  0  0  0  0
  -19.6958   14.5424  -37.1366 C   0  0  0  0  0  0  0  0  0  0  0  0
  -19.1081   15.9195  -36.8964 C   0  0  0  0  0  0  0  0  0  0  0  0
  -17.3991   15.8432  -36.4905 S   0  0  0  0  0  6  0  0  0  0  0  0
  -16.7377   14.9298  -37.5106 O   0  0  0  0  0  0  0  0  0  0  0  0
  -17.1875   15.2800  -35.0939 O   0  0  0  0  0  0  0  0  0  0  0  0
  -16.6658   17.4170  -36.6194 C   0  0  0  0  0  0  0  0  0  0  0  0
  -15.4182   17.6109  -36.0670 C   0  0  0  0  0  0  0  0  0  0  0  0
  -14.6403   16.2612  -35.2761 Cl  0  0  0  0  0  0  0  0  0  0  0  0
  -14.8152   18.8473  -36.1469 C   0  0  0  0  0  0  0  0  0  0  0  0
  -15.5007   19.8874  -36.7985 C   0  0  0  0  0  0  0  0  0  0  0  0
  -16.7275   19.7315  -37.3522 C   0  0  0  0  0  0  0  0  0  0  0  0
  -17.4659   20.7278  -38.0163 N   0  0  0  0  0  0  0  0  0  0  0  0
  -18.3754   20.5422  -39.0793 C   0  0  0  0  0  0  0  0  0  0  0  0
  -18.2449   19.5875  -39.8618 O   0  0  0  0  0  0  0  0  0  0  0  0
  -19.4855   21.4188  -39.3252 N   0  0  0  0  0  0  0  0  0  0  0  0
  -20.1057   21.4805  -40.6125 C   0  0  0  0  0  0  0  0  0  0  0  0
  -20.6044   20.3575  -41.2404 C   0  0  0  0  0  0  0  0  0  0  0  0
  -21.2095   20.3660  -42.4786 C   0  0  0  0  0  0  0  0  0  0  0  0
  -21.3232   21.5755  -43.1305 C   0  0  0  0  0  0  0  0  0  0  0  0
  -20.8361   22.7358  -42.5390 C   0  0  0  0  0  0  0  0  0  0  0  0
  -20.9508   23.9082  -43.1802 F   0  0  0  0  0  0  0  0  0  0  0  0
  -20.2356   22.6795  -41.2938 C   0  0  0  0  0  0  0  0  0  0  0  0
  -19.6105   24.1195  -40.5180 Cl  0  0  0  0  0  0  0  0  0  0  0  0
  -17.3136   18.4604  -37.2532 C   0  0  0  0  0  0  0  0  0  0  0  0
  -18.5689   18.2557  -37.8046 O   0  0  0  0  0  0  0  0  0  0  0  0
  -19.9037   16.7224  -35.9254 C   0  0  0  0  0  0  0  0  0  0  0  0
  -20.2575   15.9645  -34.6736 C   0  0  0  0  0  0  0  0  0  0  0  0
  1  2  1  0
  2  3  1  0
  3  4  1  0
  4  5  1  0
  5  6  1  0
  6  7  2  0
  6  8  2  0
  6  9  1  0
  9 10  2  0
 10 11  1  0
 10 12  1  0
 12 13  2  0
 13 14  1  0
 14 15  1  0
 15 16  1  0
 16 17  2  0
 16 18  1  0
 18 19  1  0
 19 20  2  0
 20 21  1  0
 21 22  2  0
 22 23  1  0
 23 24  1  0
 23 25  2  0
 25 26  1  0
 14 27  2  0
 27 28  1  0
  5 29  1  0
 29 30  1  0
 30  2  1  0
 27  9  1  0
 25 19  1  0
M  END
$$$$
