
     RDKit          3D

 21 23  0  0  0  0  0  0  0  0999 V2000
  -21.7281   42.7322  -27.8436 C   0  0  0  0  0  0  0  0  0  0  0  0
  -21.2272   41.3856  -27.6757 N   0  0  0  0  0  0  0  0  0  0  0  0
  -22.2424   40.6085  -26.9664 C   0  0  0  0  0  0  0  0  0  0  0  0
  -22.2487   41.3069  -25.6097 C   0  0  0  0  0  0  0  0  0  0  0  0
  -20.8388   41.7660  -25.3920 C   0  0  0  0  0  0  0  0  0  0  0  0
  -20.1680   41.4181  -26.7037 C   0  0  1  0  0  0  0  0  0  0  0  0
  -19.5131   40.0947  -26.5925 C   0  0  0  0  0  0  0  0  0  0  0  0
  -20.3791   38.9206  -26.9104 C   0  0  1  0  0  0  0  0  0  0  0  0
  -19.9737   37.7914  -26.1524 O   0  0  0  0  0  0  0  0  0  0  0  0
  -19.9231   37.7609  -24.7767 C   0  0  0  0  0  0  0  0  0  0  0  0
  -21.0186   37.9965  -24.1727 O   0  0  0  0  0  0  0  0  0  0  0  0
  -18.6747   37.4721  -24.0137 C   0  0  2  0  0  0  0  0  0  0  0  0
  -18.9313   36.3263  -23.0328 C   0  0  0  0  0  0  0  0  0  0  0  0
  -19.2910   35.1812  -23.7085 O   0  0  0  0  0  0  0  0  0  0  0  0
  -18.2173   38.6644  -23.2956 C   0  0  0  0  0  0  0  0  0  0  0  0
  -17.3339   39.5165  -23.9286 C   0  0  0  0  0  0  0  0  0  0  0  0
  -16.8868   40.6455  -23.2773 C   0  0  0  0  0  0  0  0  0  0  0  0
  -17.3374   40.8913  -22.0068 C   0  0  0  0  0  0  0  0  0  0  0  0
  -18.2258   40.0415  -21.3598 C   0  0  0  0  0  0  0  0  0  0  0  0
  -18.6711   38.9124  -22.0150 C   0  0  0  0  0  0  0  0  0  0  0  0
  -21.8438   39.1814  -26.8205 C   0  0  0  0  0  0  0  0  0  0  0  0
  1  2  1  0
  2  3  1  0
  3  4  1  0
  4  5  1  0
  6  5  1  1
  6  7  1  0
  7  8  1  0
  8  9  1  1
  9 10  1  0
 10 11  2  0
 10 12  1  0
 12 13  1  1
 13 14  1  0
 12 15  1  0
 15 16  2  0
 16 17  1  0
 17 18  2  0
 18 19  1  0
 19 20  2  0
  8 21  1  0
  6  2  1  0
 20 15  1  0
 21  3  1  0
M  END
$$$$
