
     RDKit          3D

 31 34  0  0  0  0  0  0  0  0999 V2000
  -21.3449   36.7203  -27.2297 N   0  0  0  0  0  0  0  0  0  0  0  0
  -20.6575   37.5660  -26.3250 C   0  0  0  0  0  0  0  0  0  0  0  0
  -20.3637   38.7209  -26.7249 O   0  0  0  0  0  0  0  0  0  0  0  0
  -20.3165   37.0918  -24.9918 C   0  0  0  0  0  0  0  0  0  0  0  0
  -20.5064   35.8858  -24.4414 N   0  0  0  0  0  0  0  0  0  0  0  0
  -20.0153   35.8727  -23.1777 C   0  0  0  0  0  0  0  0  0  0  0  0
  -20.0358   34.7254  -22.2484 C   0  0  0  0  0  0  0  0  0  0  0  0
  -19.1893   33.6662  -22.5013 C   0  0  0  0  0  0  0  0  0  0  0  0
  -18.3687   33.6587  -23.5631 F   0  0  0  0  0  0  0  0  0  0  0  0
  -19.1926   32.5858  -21.6309 C   0  0  0  0  0  0  0  0  0  0  0  0
  -20.0231   32.5841  -20.5486 C   0  0  0  0  0  0  0  0  0  0  0  0
  -20.8713   33.6547  -20.3036 C   0  0  0  0  0  0  0  0  0  0  0  0
  -20.8807   34.7431  -21.1641 C   0  0  0  0  0  0  0  0  0  0  0  0
  -21.9610   36.0695  -20.8254 Cl  0  0  0  0  0  0  0  0  0  0  0  0
  -19.5327   37.0757  -22.9777 O   0  0  0  0  0  0  0  0  0  0  0  0
  -19.6769   37.8484  -24.0051 C   0  0  0  0  0  0  0  0  0  0  0  0
  -19.2998   39.2048  -24.1918 N   0  0  0  0  0  0  0  0  0  0  0  0
  -18.7258   39.8792  -23.0576 C   0  0  0  0  0  0  0  0  0  0  0  0
  -18.7615   41.2507  -22.9849 C   0  0  0  0  0  0  0  0  0  0  0  0
  -18.1992   41.9005  -21.9190 C   0  0  0  0  0  0  0  0  0  0  0  0
  -17.5678   41.2276  -20.8632 C   0  0  0  0  0  0  0  0  0  0  0  0
  -16.9939   41.9461  -19.7459 C   0  0  0  0  0  0  0  0  0  0  0  0
  -17.4695   41.7523  -18.5922 O   0  0  0  0  0  0  0  0  0  0  0  0
  -15.9370   42.8479  -19.8937 N   0  0  0  0  0  0  0  0  0  0  0  0
  -15.7082   43.8860  -18.9049 C   0  0  0  0  0  0  0  0  0  0  0  0
  -14.2636   43.8553  -18.4440 C   0  0  0  0  0  0  0  0  0  0  0  0
  -13.4975   43.0254  -19.2608 O   0  0  0  0  0  0  0  0  0  0  0  0
  -13.6659   43.2879  -20.5968 C   0  0  0  0  0  0  0  0  0  0  0  0
  -15.0136   42.7334  -21.0324 C   0  0  0  0  0  0  0  0  0  0  0  0
  -17.5533   39.8430  -20.9767 C   0  0  0  0  0  0  0  0  0  0  0  0
  -18.1167   39.1838  -22.0440 C   0  0  0  0  0  0  0  0  0  0  0  0
  1  2  1  0
  2  3  2  0
  2  4  1  0
  4  5  1  0
  5  6  2  0
  6  7  1  0
  7  8  2  0
  8  9  1  0
  8 10  1  0
 10 11  2  0
 11 12  1  0
 12 13  2  0
 13 14  1  0
  6 15  1  0
 15 16  1  0
 16 17  1  0
 17 18  1  0
 18 19  2  0
 19 20  1  0
 20 21  2  0
 21 22  1  0
 22 23  2  0
 22 24  1  0
 24 25  1  0
 25 26  1  0
 26 27  1  0
 27 28  1  0
 28 29  1  0
 21 30  1  0
 30 31  2  0
 16  4  2  0
 31 18  1  0
 13  7  1  0
 29 24  1  0
M  END
$$$$
