
     RDKit          3D

 10 10  0  0  0  0  0  0  0  0999 V2000
  -21.4459   23.9252  -43.0024 O   0  0  0  0  0  0  0  0  0  0  0  0
  -21.8581   24.1069  -41.8115 C   0  0  0  0  0  0  0  0  0  0  0  0
  -21.6487   25.3726  -41.2820 O   0  0  0  0  0  0  0  0  0  0  0  0
  -22.5173   22.9990  -41.0740 C   0  0  0  0  0  0  0  0  0  0  0  0
  -22.0040   22.9207  -39.7464 N   0  0  0  0  0  0  0  0  0  0  0  0
  -22.7433   22.0332  -38.8845 C   0  0  0  0  0  0  0  0  0  0  0  0
  -22.4501   20.5635  -39.2184 C   0  0  0  0  0  0  0  0  0  0  0  0
  -21.0972   20.3214  -39.2666 O   0  0  0  0  0  0  0  0  0  0  0  0
  -20.3076   21.3785  -38.8594 C   0  0  0  0  0  0  0  0  0  0  0  0
  -20.6172   22.6670  -39.6147 C   0  0  0  0  0  0  0  0  0  0  0  0
  1  2  2  0
  2  3  1  0
  2  4  1  0
  4  5  1  0
  5  6  1  0
  6  7  1  0
  7  8  1  0
  8  9  1  0
  9 10  1  0
 10  5  1  0
M  END
$$$$
