
     RDKit          3D

 17 19  0  0  0  0  0  0  0  0999 V2000
  -18.6010   35.2247  -22.1345 C   0  0  0  0  0  0  0  0  0  0  0  0
  -17.7337   36.3043  -22.7237 C   0  0  0  0  0  0  0  0  0  0  0  0
  -18.4525   37.4721  -23.1509 N   0  0  0  0  0  0  0  0  0  0  0  0
  -18.6684   38.6210  -22.5207 C   0  0  0  0  0  0  0  0  0  0  0  0
  -18.2637   39.1569  -21.2347 C   0  0  0  0  0  0  0  0  0  0  0  0
  -17.8177   38.3175  -20.2392 N   0  0  0  0  0  0  0  0  0  0  0  0
  -17.4798   38.9962  -19.1960 O   0  0  0  0  0  0  0  0  0  0  0  0
  -17.6597   40.2521  -19.3947 N   0  0  0  0  0  0  0  0  0  0  0  0
  -18.1549   40.3763  -20.6755 C   0  0  0  0  0  0  0  0  0  0  0  0
  -18.4932   41.6126  -21.2183 N   0  0  0  0  0  0  0  0  0  0  0  0
  -19.4548   39.3649  -23.3754 N   0  0  0  0  0  0  0  0  0  0  0  0
  -19.7144   38.7079  -24.4892 C   0  0  0  0  0  0  0  0  0  0  0  0
  -20.4265   38.9776  -25.6418 C   0  0  0  0  0  0  0  0  0  0  0  0
  -20.5279   38.0775  -26.6741 C   0  0  0  0  0  0  0  0  0  0  0  0
  -19.8986   36.8593  -26.5622 C   0  0  0  0  0  0  0  0  0  0  0  0
  -19.1889   36.5919  -25.4121 C   0  0  0  0  0  0  0  0  0  0  0  0
  -19.0848   37.5064  -24.3609 C   0  0  0  0  0  0  0  0  0  0  0  0
  1  2  1  0
  2  3  1  0
  3  4  1  0
  4  5  1  0
  5  6  2  0
  6  7  1  0
  7  8  1  0
  8  9  2  0
  9 10  1  0
  4 11  2  0
 11 12  1  0
 12 13  2  0
 13 14  1  0
 14 15  2  0
 15 16  1  0
 16 17  2  0
 17  3  1  0
  9  5  1  0
 17 12  1  0
M  END
$$$$
