
     RDKit          3D

 16 17  0  0  0  0  0  0  0  0999 V2000
  -17.1583   43.2111  -24.0542 C   0  0  0  0  0  0  0  0  0  0  0  0
  -16.7018   41.9036  -23.9723 O   0  0  0  0  0  0  0  0  0  0  0  0
  -17.5017   40.8905  -23.4977 C   0  0  0  0  0  0  0  0  0  0  0  0
  -18.7696   41.1350  -23.0192 C   0  0  0  0  0  0  0  0  0  0  0  0
  -19.5037   40.0613  -22.5617 C   0  0  0  0  0  0  0  0  0  0  0  0
  -19.0122   38.7753  -22.5696 C   0  0  0  0  0  0  0  0  0  0  0  0
  -17.7253   38.5013  -23.0517 C   0  0  0  0  0  0  0  0  0  0  0  0
  -17.2318   37.1433  -23.0646 C   0  0  0  0  0  0  0  0  0  0  0  0
  -18.0018   36.1646  -22.6770 C   0  0  0  0  0  0  0  0  0  0  0  0
  -18.1829   34.6256  -23.5630 S   0  0  0  0  0  0  0  0  0  0  0  0
  -19.0048   33.7360  -22.2411 C   0  0  0  0  0  0  0  0  0  0  0  0
  -19.2009   32.4898  -22.1600 O   0  0  0  0  0  0  0  0  0  0  0  0
  -19.3816   34.7409  -21.3123 N   0  0  0  0  0  0  0  0  0  0  0  0
  -18.8674   36.0073  -21.5281 C   0  0  0  0  0  0  0  0  0  0  0  0
  -19.1262   37.0070  -20.7677 O   0  0  0  0  0  0  0  0  0  0  0  0
  -17.0082   39.5772  -23.5032 C   0  0  0  0  0  0  0  0  0  0  0  0
  1  2  1  0
  2  3  1  0
  3  4  2  0
  4  5  1  0
  5  6  2  0
  6  7  1  0
  7  8  1  0
  8  9  2  0
  9 10  1  0
 10 11  1  0
 11 12  2  0
 11 13  1  0
 13 14  1  0
 14 15  2  0
  7 16  2  0
 16  3  1  0
 14  9  1  0
M  END
$$$$
