
     RDKit          3D

 38 40  0  0  0  0  0  0  0  0999 V2000
  -23.7819   24.4461  -38.1642 C   0  0  0  0  0  0  0  0  0  0  0  0
  -25.3072   24.3438  -38.1114 C   0  0  0  0  0  0  0  0  0  0  0  0
  -25.8115   25.5698  -37.6433 O   0  0  0  0  0  0  0  0  0  0  0  0
  -27.1563   25.8661  -37.4639 C   0  0  0  0  0  0  0  0  0  0  0  0
  -27.9442   24.9035  -37.7688 O   0  0  0  0  0  0  0  0  0  0  0  0
  -27.6834   27.1189  -36.9838 C   0  0  0  0  0  0  0  0  0  0  0  0
  -27.6846   27.3927  -35.5146 C   0  0  0  0  0  0  0  0  0  0  0  0
  -26.3296   27.3092  -35.0077 N   0  0  0  0  0  0  0  0  0  0  0  0
  -25.8150   26.1490  -34.4681 C   0  0  0  0  0  0  0  0  0  0  0  0
  -24.5157   26.0373  -34.5506 O   0  0  0  0  0  0  0  0  0  0  0  0
  -26.4551   25.0358  -33.8151 C   0  0  0  0  0  0  0  0  0  0  0  0
  -27.5543   24.3982  -34.2329 C   0  0  0  0  0  0  0  0  0  0  0  0
  -28.1063   23.2963  -33.5450 C   0  0  0  0  0  0  0  0  0  0  0  0
  -27.5091   22.8444  -32.4020 C   0  0  0  0  0  0  0  0  0  0  0  0
  -26.3767   23.4816  -31.9483 C   0  0  0  0  0  0  0  0  0  0  0  0
  -25.8473   24.5549  -32.6256 C   0  0  0  0  0  0  0  0  0  0  0  0
  -26.0403   22.7923  -30.8268 N   0  0  0  0  0  0  0  0  0  0  0  0
  -26.9144   21.7938  -30.6104 C   0  0  0  0  0  0  0  0  0  0  0  0
  -26.9532   20.7707  -29.5456 C   0  0  0  0  0  0  0  0  0  0  0  0
  -27.6733   21.1548  -28.3717 N   0  0  0  0  0  0  0  0  0  0  0  0
  -27.8133   20.1801  -27.3365 C   0  0  0  0  0  0  0  0  0  0  0  0
  -27.3012   18.9096  -27.4645 C   0  0  0  0  0  0  0  0  0  0  0  0
  -27.4096   17.9358  -26.4850 C   0  0  0  0  0  0  0  0  0  0  0  0
  -28.0684   18.2735  -25.3254 C   0  0  0  0  0  0  0  0  0  0  0  0
  -28.1957   17.2744  -24.2880 C   0  0  0  0  0  0  0  0  0  0  0  0
  -27.4009   16.2601  -24.1537 N   0  0  0  0  0  0  0  0  0  0  0  0
  -29.2421   17.4015  -23.3542 N   0  0  0  0  0  0  0  0  0  0  0  0
  -28.6004   19.5254  -25.1387 C   0  0  0  0  0  0  0  0  0  0  0  0
  -28.4678   20.4655  -26.1457 C   0  0  0  0  0  0  0  0  0  0  0  0
  -27.8493   21.8134  -31.5964 N   0  0  0  0  0  0  0  0  0  0  0  0
  -28.9868   20.8993  -31.7415 C   0  0  0  0  0  0  0  0  0  0  0  0
  -25.5385   28.4976  -35.2177 C   0  0  0  0  0  0  0  0  0  0  0  0
  -24.2832   28.6662  -34.7114 C   0  0  0  0  0  0  0  0  0  0  0  0
  -23.5780   29.8438  -35.0037 C   0  0  0  0  0  0  0  0  0  0  0  0
  -24.1424   30.8198  -35.7902 C   0  0  0  0  0  0  0  0  0  0  0  0
  -25.4122   30.6280  -36.2894 C   0  0  0  0  0  0  0  0  0  0  0  0
  -26.0381   29.5055  -35.9897 N   0  0  0  0  0  0  0  0  0  0  0  0
  -26.5817   23.9377  -32.7601 Cl  0  0  0  0  0  0  0  0  0  0  0  0
  1  2  1  0
  2  3  1  0
  3  4  1  0
  4  5  2  0
  4  6  1  0
  6  7  1  0
  7  8  1  0
  8  9  1  0
  9 10  2  0
  9 11  1  0
 11 12  2  0
 12 13  1  0
 13 14  2  0
 14 15  1  0
 15 16  2  0
 15 17  1  0
 17 18  2  0
 18 19  1  0
 19 20  1  0
 20 21  1  0
 21 22  2  0
 22 23  1  0
 23 24  2  0
 24 25  1  0
 25 26  2  0
 25 27  1  0
 24 28  1  0
 28 29  2  0
 18 30  1  0
 30 31  1  0
  8 32  1  0
 32 33  2  0
 33 34  1  0
 34 35  2  0
 35 36  1  0
 36 37  2  0
 16 11  1  0
 29 21  1  0
 37 32  1  0
 30 14  1  0
M  END
$$$$
