
     RDKit          3D

 37 40  0  0  0  0  0  0  0  0999 V2000
  -31.9762   16.8250  -25.0493 C   0  0  0  0  0  0  0  0  0  0  0  0
  -30.6410   16.8927  -25.4585 O   0  0  0  0  0  0  0  0  0  0  0  0
  -30.1819   17.8058  -26.3968 C   0  0  0  0  0  0  0  0  0  0  0  0
  -30.7853   17.8933  -27.6408 C   0  0  0  0  0  0  0  0  0  0  0  0
  -30.3499   18.7916  -28.5929 C   0  0  0  0  0  0  0  0  0  0  0  0
  -30.9127   18.9004  -29.8065 N   0  0  0  0  0  0  0  0  0  0  0  0
  -30.5063   19.7666  -30.7494 C   0  0  0  0  0  0  0  0  0  0  0  0
  -29.4534   20.5795  -30.4362 N   0  0  0  0  0  0  0  0  0  0  0  0
  -28.8557   20.5091  -29.2343 C   0  0  0  0  0  0  0  0  0  0  0  0
  -27.7915   21.3535  -28.9619 O   0  0  0  0  0  0  0  0  0  0  0  0
  -27.0251   21.8896  -29.9785 C   0  0  0  0  0  0  0  0  0  0  0  0
  -27.5363   22.9487  -30.6974 C   0  0  0  0  0  0  0  0  0  0  0  0
  -26.7937   23.5043  -31.7183 C   0  0  0  0  0  0  0  0  0  0  0  0
  -25.5293   22.9766  -32.0034 C   0  0  0  0  0  0  0  0  0  0  0  0
  -25.0037   21.9171  -31.2933 C   0  0  0  0  0  0  0  0  0  0  0  0
  -23.7136   21.4263  -31.6315 N   0  0  0  0  0  0  0  0  0  0  0  0
  -23.4144   20.0156  -31.5303 C   0  0  0  0  0  0  0  0  0  0  0  0
  -24.2974   19.2694  -31.0831 O   0  0  0  0  0  0  0  0  0  0  0  0
  -22.1760   19.4878  -31.9183 N   0  0  0  0  0  0  0  0  0  0  0  0
  -21.8521   18.1110  -31.9501 C   0  0  0  0  0  0  0  0  0  0  0  0
  -21.1999   17.3774  -32.9096 C   0  0  0  0  0  0  0  0  0  0  0  0
  -21.1221   16.0579  -32.4835 C   0  0  0  0  0  0  0  0  0  0  0  0
  -20.5231   14.9099  -33.1563 C   0  0  0  0  0  0  0  0  0  0  0  0
  -19.2860   14.3915  -32.4531 C   0  0  0  0  0  0  0  0  0  0  0  0
  -20.0684   15.3356  -34.5430 C   0  0  0  0  0  0  0  0  0  0  0  0
  -21.4903   13.7842  -33.2787 C   0  0  0  0  0  0  0  0  0  0  0  0
  -21.8980   13.3426  -32.0470 F   0  0  0  0  0  0  0  0  0  0  0  0
  -20.8631   12.7648  -33.9866 F   0  0  0  0  0  0  0  0  0  0  0  0
  -22.5998   14.1629  -34.0338 F   0  0  0  0  0  0  0  0  0  0  0  0
  -21.7255   16.0457  -31.2929 O   0  0  0  0  0  0  0  0  0  0  0  0
  -22.1460   17.2123  -30.9785 N   0  0  0  0  0  0  0  0  0  0  0  0
  -25.7576   21.3780  -30.2814 C   0  0  0  0  0  0  0  0  0  0  0  0
  -29.2755   19.6196  -28.2705 C   0  0  0  0  0  0  0  0  0  0  0  0
  -28.6901   19.5173  -27.0302 C   0  0  0  0  0  0  0  0  0  0  0  0
  -29.1185   18.6224  -26.0722 C   0  0  0  0  0  0  0  0  0  0  0  0
  -28.5522   18.5001  -24.8278 O   0  0  0  0  0  0  0  0  0  0  0  0
  -27.2419   18.0100  -24.6079 C   0  0  0  0  0  0  0  0  0  0  0  0
  1  2  1  0
  2  3  1  0
  3  4  2  0
  4  5  1  0
  5  6  2  0
  6  7  1  0
  7  8  2  0
  8  9  1  0
  9 10  1  0
 10 11  1  0
 11 12  2  0
 12 13  1  0
 13 14  2  0
 14 15  1  0
 15 16  1  0
 16 17  1  0
 17 18  2  0
 17 19  1  0
 19 20  1  0
 20 21  1  0
 21 22  2  0
 22 23  1  0
 23 24  1  0
 23 25  1  0
 23 26  1  0
 26 27  1  0
 26 28  1  0
 26 29  1  0
 22 30  1  0
 30 31  1  0
 15 32  2  0
  9 33  2  0
 33 34  1  0
 34 35  2  0
 35 36  1  0
 36 37  1  0
 35  3  1  0
 33  5  1  0
 32 11  1  0
 31 20  2  0
M  END
$$$$
