
     RDKit          3D

 28 32  0  0  0  0  0  0  0  0999 V2000
  -20.8848   41.9650  -25.8775 C   0  0  0  0  0  0  0  0  0  0  0  0
  -20.7429   40.6213  -26.2467 O   0  0  0  0  0  0  0  0  0  0  0  0
  -20.3070   39.6603  -25.3465 C   0  0  0  0  0  0  0  0  0  0  0  0
  -19.3327   39.9706  -24.4210 C   0  0  0  0  0  0  0  0  0  0  0  0
  -18.8573   39.0506  -23.4957 C   0  0  0  0  0  0  0  0  0  0  0  0
  -17.8848   39.3809  -22.5811 C   0  0  0  0  0  0  0  0  0  0  0  0
  -17.3691   40.6547  -22.5816 O   0  0  0  0  0  0  0  0  0  0  0  0
  -17.4350   38.4482  -21.6780 C   0  0  0  0  0  0  0  0  0  0  0  0
  -17.9557   37.1756  -21.6834 C   0  0  0  0  0  0  0  0  0  0  0  0
  -18.9308   36.8197  -22.5897 C   0  0  0  0  0  0  0  0  0  0  0  0
  -19.5190   35.4886  -22.6428 C   0  0  0  0  0  0  0  0  0  0  0  0
  -20.8076   35.2394  -22.2158 C   0  0  0  0  0  0  0  0  0  0  0  0
  -21.3910   33.9900  -22.2541 C   0  0  0  0  0  0  0  0  0  0  0  0
  -20.6744   32.9363  -22.7344 C   0  0  0  0  0  0  0  0  0  0  0  0
  -19.3741   33.1371  -23.1756 C   0  0  0  0  0  0  0  0  0  0  0  0
  -18.8069   34.3945  -23.1297 C   0  0  0  0  0  0  0  0  0  0  0  0
  -18.9425   31.8858  -23.5906 O   0  0  0  0  0  0  0  0  0  0  0  0
  -20.0433   31.0064  -23.7199 C   0  0  0  0  0  0  0  0  0  0  0  0
  -21.0148   31.6003  -22.8804 O   0  0  0  0  0  0  0  0  0  0  0  0
  -19.3837   37.7533  -23.4964 C   0  0  0  0  0  0  0  0  0  0  0  0
  -20.3588   37.4363  -24.4199 C   0  0  0  0  0  0  0  0  0  0  0  0
  -20.8115   38.3787  -25.3302 C   0  0  0  0  0  0  0  0  0  0  0  0
  -21.7967   38.0479  -26.2585 O   0  0  0  0  0  0  0  0  0  0  0  0
  -21.5223   37.0819  -27.2481 C   0  0  0  0  0  0  0  0  0  0  0  0
  -17.3314   36.3879  -20.6542 C   0  0  0  0  0  0  0  0  0  0  0  0
  -17.5933   35.1657  -20.3995 O   0  0  0  0  0  0  0  0  0  0  0  0
  -16.4195   37.2085  -20.0222 O   0  0  0  0  0  0  0  0  0  0  0  0
  -16.4275   38.4915  -20.5983 C   0  0  0  0  0  0  0  0  0  0  0  0
  1  2  1  0
  2  3  1  0
  3  4  2  0
  4  5  1  0
  5  6  2  0
  6  7  1  0
  6  8  1  0
  8  9  2  0
  9 10  1  0
 10 11  1  0
 11 12  2  0
 12 13  1  0
 13 14  2  0
 14 15  1  0
 15 16  2  0
 15 17  1  0
 17 18  1  0
 18 19  1  0
 10 20  2  0
 20 21  1  0
 21 22  2  0
 22 23  1  0
 23 24  1  0
  9 25  1  0
 25 26  2  0
 25 27  1  0
 27 28  1  0
 22  3  1  0
 20  5  1  0
 28  8  1  0
 16 11  1  0
 19 14  1  0
M  END
$$$$
