
     RDKit          3D

 22 24  0  0  0  0  0  0  0  0999 V2000
  -16.7398   41.2063  -20.7588 C   0  0  0  0  0  0  0  0  0  0  0  0
  -17.8749   40.5905  -21.5480 C   0  0  0  0  0  0  0  0  0  0  0  0
  -18.9673   41.6567  -21.7021 C   0  0  0  0  0  0  0  0  0  0  0  0
  -17.5077   40.2112  -22.8216 O   0  0  0  0  0  0  0  0  0  0  0  0
  -16.9427   38.9335  -22.6503 C   0  0  2  0  0  0  0  0  0  0  0  0
  -16.9638   38.1211  -23.8870 C   0  0  0  0  0  0  0  0  0  0  0  0
  -17.5284   36.8815  -23.7783 O   0  0  0  0  0  0  0  0  0  0  0  0
  -18.7285   36.8454  -23.1236 C   0  0  1  0  0  0  0  0  0  0  0  0
  -19.8420   37.5574  -23.8312 C   0  0  0  0  0  0  0  0  0  0  0  0
  -20.3307   36.8468  -24.9119 O   0  0  0  0  0  0  0  0  0  0  0  0
  -21.6026   37.5775  -25.6724 S   0  0  0  0  0  6  0  0  0  0  0  0
  -21.0046   38.3983  -27.0697 N   0  0  0  0  0  0  0  0  0  0  0  0
  -22.2900   38.5988  -24.8117 O   0  0  0  0  0  0  0  0  0  0  0  0
  -22.6288   36.5799  -26.1651 O   0  0  0  0  0  0  0  0  0  0  0  0
  -19.1030   35.4942  -23.0081 O   0  0  0  0  0  0  0  0  0  0  0  0
  -18.5699   35.0231  -21.8359 C   0  0  0  0  0  0  0  0  0  0  0  0
  -19.6012   34.3124  -20.9800 C   0  0  0  0  0  0  0  0  0  0  0  0
  -17.4452   34.0455  -22.1748 C   0  0  0  0  0  0  0  0  0  0  0  0
  -18.0785   36.0798  -21.1133 O   0  0  0  0  0  0  0  0  0  0  0  0
  -18.5535   37.2483  -21.7075 C   0  0  1  0  0  0  0  0  0  0  0  0
  -17.6114   38.3705  -21.4685 C   0  0  2  0  0  0  0  0  0  0  0  0
  -18.3448   39.4548  -20.9327 O   0  0  0  0  0  0  0  0  0  0  0  0
  1  2  1  0
  2  3  1  0
  2  4  1  0
  4  5  1  0
  5  6  1  6
  6  7  1  0
  7  8  1  0
  8  9  1  6
  9 10  1  0
 10 11  1  0
 11 12  1  0
 11 13  2  0
 11 14  2  0
  8 15  1  0
 15 16  1  0
 16 17  1  0
 16 18  1  0
 16 19  1  0
 20 19  1  1
 20 21  1  0
 21 22  1  6
 22  2  1  0
 21  5  1  0
 20  8  1  0
M  END
$$$$
