
     RDKit          3D

 28 30  0  0  0  0  0  0  0  0999 V2000
  -19.3895   20.7019  -31.9788 C   0  0  0  0  0  0  0  0  0  0  0  0
  -18.7148   19.4205  -32.2214 N   0  0  0  0  0  0  0  0  0  0  0  0
  -17.3826   19.3327  -32.1321 C   0  0  0  0  0  0  0  0  0  0  0  0
  -16.7439   20.3813  -31.8351 O   0  0  0  0  0  0  0  0  0  0  0  0
  -16.6880   18.1671  -32.3465 C   0  0  0  0  0  0  0  0  0  0  0  0
  -15.3437   18.0831  -32.2548 F   0  0  0  0  0  0  0  0  0  0  0  0
  -17.3838   16.9976  -32.6770 C   0  0  0  0  0  0  0  0  0  0  0  0
  -16.6827   15.7756  -32.8655 N   0  0  0  0  0  0  0  0  0  0  0  0
  -16.0359   15.0379  -31.8573 C   0  0  0  0  0  0  0  0  0  0  0  0
  -16.1588   15.4548  -30.5367 C   0  0  0  0  0  0  0  0  0  0  0  0
  -15.5141   14.7373  -29.5613 C   0  0  0  0  0  0  0  0  0  0  0  0
  -14.7590   13.6325  -29.8412 C   0  0  0  0  0  0  0  0  0  0  0  0
  -13.7619   12.5195  -28.3479 I   0  0  0  0  0  0  0  0  0  0  0  0
  -14.6345   13.2193  -31.1332 C   0  0  0  0  0  0  0  0  0  0  0  0
  -15.2769   13.9302  -32.1285 C   0  0  0  0  0  0  0  0  0  0  0  0
  -15.1365   13.5207  -33.4218 F   0  0  0  0  0  0  0  0  0  0  0  0
  -18.7508   17.1099  -32.7633 C   0  0  0  0  0  0  0  0  0  0  0  0
  -19.5298   15.9872  -33.0602 C   0  0  0  0  0  0  0  0  0  0  0  0
  -18.9151   14.9102  -33.2635 O   0  0  0  0  0  0  0  0  0  0  0  0
  -20.8701   16.0363  -33.1293 N   0  0  0  0  0  0  0  0  0  0  0  0
  -21.6526   14.8857  -33.4160 C   0  0  0  0  0  0  0  0  0  0  0  0
  -21.9920   13.9671  -32.3135 C   0  0  1  0  0  0  0  0  0  0  0  0
  -22.8184   14.4922  -31.3214 O   0  0  0  0  0  0  0  0  0  0  0  0
  -22.5314   12.6211  -32.7208 C   0  0  0  0  0  0  0  0  0  0  0  0
  -22.7490   12.5304  -34.0759 O   0  0  0  0  0  0  0  0  0  0  0  0
  -21.4606   17.2389  -32.8988 C   0  0  0  0  0  0  0  0  0  0  0  0
  -20.7388   18.3371  -32.6119 N   0  0  0  0  0  0  0  0  0  0  0  0
  -19.3970   18.3147  -32.5350 C   0  0  0  0  0  0  0  0  0  0  0  0
  1  2  1  0
  2  3  1  0
  3  4  2  0
  3  5  1  0
  5  6  1  0
  5  7  2  0
  7  8  1  0
  8  9  1  0
  9 10  2  0
 10 11  1  0
 11 12  2  0
 12 13  1  0
 12 14  1  0
 14 15  2  0
 15 16  1  0
  7 17  1  0
 17 18  1  0
 18 19  2  0
 18 20  1  0
 20 21  1  0
 21 22  1  0
 22 23  1  1
 22 24  1  0
 24 25  1  0
 20 26  1  0
 26 27  2  0
 27 28  1  0
 28  2  1  0
 15  9  1  0
 28 17  2  0
M  END
$$$$
