
     RDKit          3D

 11 12  0  0  0  0  0  0  0  0999 V2000
  -19.1393   40.0057  -19.9212 O   0  0  0  0  0  0  0  0  0  0  0  0
  -18.2020   39.3541  -20.4206 C   0  0  0  0  0  0  0  0  0  0  0  0
  -16.9410   39.9259  -20.4142 O   0  0  0  0  0  0  0  0  0  0  0  0
  -18.4074   38.0177  -21.0038 C   0  0  0  0  0  0  0  0  0  0  0  0
  -19.5846   37.3434  -21.0783 C   0  0  0  0  0  0  0  0  0  0  0  0
  -19.2702   36.1487  -21.7017 C   0  0  0  0  0  0  0  0  0  0  0  0
  -19.9765   34.6250  -22.2700 S   0  0  0  0  0  0  0  0  0  0  0  0
  -18.3819   33.9531  -22.9108 C   0  0  0  0  0  0  0  0  0  0  0  0
  -17.5002   34.9515  -22.6242 C   0  0  0  0  0  0  0  0  0  0  0  0
  -17.9341   36.0716  -22.0113 C   0  0  0  0  0  0  0  0  0  0  0  0
  -17.4493   37.2764  -21.5468 N   0  0  0  0  0  0  0  0  0  0  0  0
  1  2  2  0
  2  3  1  0
  2  4  1  0
  4  5  2  0
  5  6  1  0
  6  7  1  0
  7  8  1  0
  8  9  2  0
  9 10  1  0
 10 11  1  0
 11  4  1  0
 10  6  2  0
M  END
$$$$
