
     RDKit          3D

 22 24  0  0  0  0  0  0  0  0999 V2000
  -15.5223   19.1064  -30.8347 N   0  0  0  0  0  0  0  0  0  0  0  0
  -16.0200   17.7628  -30.5731 C   0  0  0  0  0  0  0  0  0  0  0  0
  -16.2180   17.0334  -31.8819 C   0  0  1  0  0  0  0  0  0  0  0  0
  -16.1375   18.0155  -32.8880 O   0  0  0  0  0  0  0  0  0  0  0  0
  -15.0941   16.0811  -32.1172 C   0  0  0  0  0  0  0  0  0  0  0  0
  -14.8022   15.0693  -31.2130 C   0  0  0  0  0  0  0  0  0  0  0  0
  -13.7632   14.1902  -31.4319 C   0  0  0  0  0  0  0  0  0  0  0  0
  -12.9695   14.2795  -32.5591 C   0  0  0  0  0  0  0  0  0  0  0  0
  -11.6421   13.1496  -32.8305 Cl  0  0  0  0  0  0  0  0  0  0  0  0
  -13.2529   15.2815  -33.4616 C   0  0  0  0  0  0  0  0  0  0  0  0
  -14.2892   16.1540  -33.2380 C   0  0  0  0  0  0  0  0  0  0  0  0
  -17.5378   16.4068  -31.9973 C   0  0  0  0  0  0  0  0  0  0  0  0
  -18.2965   16.6342  -33.1311 C   0  0  0  0  0  0  0  0  0  0  0  0
  -19.5444   16.0652  -33.2820 C   0  0  0  0  0  0  0  0  0  0  0  0
  -20.0642   15.2508  -32.2957 C   0  0  0  0  0  0  0  0  0  0  0  0
  -21.3856   14.6396  -32.4389 C   0  0  0  0  0  0  0  0  0  0  0  0
  -22.0557   13.8739  -31.5074 C   0  0  0  0  0  0  0  0  0  0  0  0
  -23.2374   13.5079  -32.0324 N   0  0  0  0  0  0  0  0  0  0  0  0
  -23.3614   13.9991  -33.2540 N   0  0  0  0  0  0  0  0  0  0  0  0
  -22.2463   14.6979  -33.5370 C   0  0  0  0  0  0  0  0  0  0  0  0
  -19.2836   15.0400  -31.1715 C   0  0  0  0  0  0  0  0  0  0  0  0
  -18.0372   15.5958  -30.9979 C   0  0  0  0  0  0  0  0  0  0  0  0
  1  2  1  0
  2  3  1  0
  3  4  1  6
  3  5  1  0
  5  6  2  0
  6  7  1  0
  7  8  2  0
  8  9  1  0
  8 10  1  0
 10 11  2  0
  3 12  1  0
 12 13  2  0
 13 14  1  0
 14 15  2  0
 15 16  1  0
 16 17  1  0
 17 18  2  0
 18 19  1  0
 19 20  1  0
 15 21  1  0
 21 22  2  0
 11  5  1  0
 22 12  1  0
 20 16  2  0
M  END
$$$$
