
     RDKit          3D

 35 38  0  0  0  0  0  0  0  0999 V2000
  -22.5674   45.8487  -32.4774 C   0  0  0  0  0  0  0  0  0  0  0  0
  -23.8893   45.3699  -31.8634 C   0  0  0  0  0  0  0  0  0  0  0  0
  -24.8072   45.0174  -33.0151 C   0  0  0  0  0  0  0  0  0  0  0  0
  -24.5222   46.4547  -31.0281 C   0  0  0  0  0  0  0  0  0  0  0  0
  -23.5639   44.1971  -31.0348 C   0  0  0  0  0  0  0  0  0  0  0  0
  -22.3162   43.6267  -30.9326 C   0  0  0  0  0  0  0  0  0  0  0  0
  -22.0956   42.5119  -30.1234 C   0  0  0  0  0  0  0  0  0  0  0  0
  -23.1160   41.9405  -29.3971 C   0  0  0  0  0  0  0  0  0  0  0  0
  -22.9138   40.7476  -28.5350 C   0  0  0  0  0  0  0  0  0  0  0  0
  -24.1274   40.2915  -28.0311 O   0  0  0  0  0  0  0  0  0  0  0  0
  -21.9803   41.1378  -27.4354 C   0  0  0  0  0  0  0  0  0  0  0  0
  -21.5863   40.0039  -26.5174 C   0  0  0  0  0  0  0  0  0  0  0  0
  -20.4112   40.3889  -25.6410 C   0  0  0  0  0  0  0  0  0  0  0  0
  -20.0973   39.2958  -24.7770 N   0  0  0  0  0  0  0  0  0  0  0  0
  -21.1407   38.4587  -24.3642 C   0  0  0  0  0  0  0  0  0  0  0  0
  -20.9323   37.0031  -24.2249 C   0  0  0  0  0  0  0  0  0  0  0  0
  -19.5879   36.4495  -24.4616 C   0  0  0  0  0  0  0  0  0  0  0  0
  -18.8130   36.0828  -23.2077 C   0  0  0  0  0  0  0  0  0  0  0  0
  -17.6647   35.3486  -23.5308 O   0  0  0  0  0  0  0  0  0  0  0  0
  -18.3686   37.2784  -22.4520 C   0  0  0  0  0  0  0  0  0  0  0  0
  -18.3540   37.3844  -21.0927 C   0  0  0  0  0  0  0  0  0  0  0  0
  -17.9114   38.5543  -20.4885 C   0  0  0  0  0  0  0  0  0  0  0  0
  -17.4747   39.6427  -21.2179 C   0  0  0  0  0  0  0  0  0  0  0  0
  -17.4868   39.5417  -22.6093 C   0  0  0  0  0  0  0  0  0  0  0  0
  -17.9274   38.3789  -23.1808 C   0  0  0  0  0  0  0  0  0  0  0  0
  -19.6642   35.2745  -22.2867 C   0  0  0  0  0  0  0  0  0  0  0  0
  -20.9043   35.7476  -21.9092 C   0  0  0  0  0  0  0  0  0  0  0  0
  -21.7300   35.0239  -21.0620 C   0  0  0  0  0  0  0  0  0  0  0  0
  -21.2724   33.8207  -20.6108 C   0  0  0  0  0  0  0  0  0  0  0  0
  -20.0277   33.2950  -20.9601 C   0  0  0  0  0  0  0  0  0  0  0  0
  -19.2520   34.0563  -21.8029 C   0  0  0  0  0  0  0  0  0  0  0  0
  -18.7894   37.3188  -25.3800 C   0  0  0  0  0  0  0  0  0  0  0  0
  -18.7947   38.7632  -24.9501 C   0  0  0  0  0  0  0  0  0  0  0  0
  -24.3732   42.5052  -29.4918 C   0  0  0  0  0  0  0  0  0  0  0  0
  -24.5741   43.6005  -30.2916 C   0  0  0  0  0  0  0  0  0  0  0  0
  1  2  1  0
  2  3  1  0
  2  4  1  0
  2  5  1  0
  5  6  2  0
  6  7  1  0
  7  8  2  0
  8  9  1  0
  9 10  1  0
  9 11  1  0
 11 12  1  0
 12 13  1  0
 13 14  1  0
 14 15  1  0
 15 16  1  0
 16 17  1  0
 17 18  1  0
 18 19  1  0
 18 20  1  0
 20 21  2  0
 21 22  1  0
 22 23  2  0
 23 24  1  0
 24 25  2  0
 18 26  1  0
 26 27  2  0
 27 28  1  0
 28 29  2  0
 29 30  1  0
 30 31  2  0
 17 32  1  0
 32 33  1  0
  8 34  1  0
 34 35  2  0
 35  5  1  0
 33 14  1  0
 25 20  1  0
 31 26  1  0
M  END
$$$$
