
     RDKit          3D

 30 31  0  0  0  0  0  0  0  0999 V2000
  -22.0755   11.2497  -32.3625 S   0  0  0  0  0  0  0  0  0  0  0  0
  -23.1335   12.3636  -31.8090 C   0  0  0  0  0  0  0  0  0  0  0  0
  -24.2582   12.9668  -31.7398 N   0  0  0  0  0  0  0  0  0  0  0  0
  -24.3464   14.2616  -32.3441 C   0  0  0  0  0  0  0  0  0  0  0  0
  -25.5837   14.7127  -32.7544 C   0  0  0  0  0  0  0  0  0  0  0  0
  -25.6497   15.9534  -33.3478 C   0  0  0  0  0  0  0  0  0  0  0  0
  -24.4998   16.7287  -33.5266 C   0  0  0  0  0  0  0  0  0  0  0  0
  -23.2689   16.2625  -33.1092 C   0  0  0  0  0  0  0  0  0  0  0  0
  -22.1113   17.0781  -33.3363 N   0  0  0  0  0  0  0  0  0  0  0  0
  -20.9244   16.4998  -33.8411 C   0  0  0  0  0  0  0  0  0  0  0  0
  -20.5784   14.9069  -33.5546 S   0  0  0  0  0  0  0  0  0  0  0  0
  -19.9974   17.2449  -34.5933 N   0  0  0  0  0  0  0  0  0  0  0  0
  -18.7094   17.6765  -34.0360 C   0  0  0  0  0  0  0  0  0  0  0  0
  -17.6578   17.4405  -35.1077 C   0  0  0  0  0  0  0  0  0  0  0  0
  -16.5177   18.3872  -34.7880 C   0  0  0  0  0  0  0  0  0  0  0  0
  -15.3750   18.0972  -35.7080 C   0  0  0  0  0  0  0  0  0  0  0  0
  -15.7288   18.4289  -37.0627 N   0  0  0  0  0  0  0  0  0  0  0  0
  -14.7760   18.5669  -38.1012 C   0  0  0  0  0  0  0  0  0  0  0  0
  -13.8828   19.9240  -38.1918 S   0  0  0  0  0  0  0  0  0  0  0  0
  -14.6071   17.5566  -39.0540 N   0  0  0  0  0  0  0  0  0  0  0  0
  -13.7153   17.6970  -40.1193 C   0  0  0  0  0  0  0  0  0  0  0  0
  -12.4892   17.0939  -40.1438 C   0  0  0  0  0  0  0  0  0  0  0  0
  -11.6272   17.2640  -41.2228 C   0  0  0  0  0  0  0  0  0  0  0  0
  -11.9879   18.0420  -42.2913 C   0  0  0  0  0  0  0  0  0  0  0  0
  -13.2207   18.6537  -42.2770 C   0  0  0  0  0  0  0  0  0  0  0  0
  -13.6618   19.4633  -43.3528 N   0  0  0  0  0  0  0  0  0  0  0  0
  -14.4261   20.4562  -43.1460 C   0  0  0  0  0  0  0  0  0  0  0  0
  -15.0217   21.9345  -42.9176 S   0  0  0  0  0  0  0  0  0  0  0  0
  -14.0758   18.4759  -41.1892 C   0  0  0  0  0  0  0  0  0  0  0  0
  -23.1946   15.0223  -32.5152 C   0  0  0  0  0  0  0  0  0  0  0  0
  1  2  2  0
  2  3  2  0
  3  4  1  0
  4  5  2  0
  5  6  1  0
  6  7  2  0
  7  8  1  0
  8  9  1  0
  9 10  1  0
 10 11  2  0
 10 12  1  0
 12 13  1  0
 13 14  1  0
 14 15  1  0
 15 16  1  0
 16 17  1  0
 17 18  1  0
 18 19  2  0
 18 20  1  0
 20 21  1  0
 21 22  2  0
 22 23  1  0
 23 24  2  0
 24 25  1  0
 25 26  1  0
 26 27  2  0
 27 28  2  0
 25 29  2  0
  8 30  2  0
 30  4  1  0
 29 21  1  0
M  END
$$$$
