
     RDKit          3D

 21 23  0  0  0  0  0  0  0  0999 V2000
  -12.1337   45.7645  -20.4404 C   0  0  0  0  0  0  0  0  0  0  0  0
  -12.5909   44.7263  -19.6294 O   0  0  0  0  0  0  0  0  0  0  0  0
  -13.8008   44.0616  -19.8669 C   0  0  0  0  0  0  0  0  0  0  0  0
  -14.3120   43.9373  -21.1410 C   0  0  0  0  0  0  0  0  0  0  0  0
  -15.5229   43.2691  -21.3565 C   0  0  0  0  0  0  0  0  0  0  0  0
  -16.2382   42.7175  -20.3079 C   0  0  0  0  0  0  0  0  0  0  0  0
  -17.5315   42.0003  -20.4917 C   0  0  2  0  0  0  0  0  0  0  0  0
  -17.4406   40.5577  -20.0763 C   0  0  0  0  0  0  0  0  0  0  0  0
  -18.5261   39.7409  -20.7141 C   0  0  0  0  0  0  0  0  0  0  0  0
  -18.9180   38.7078  -20.1496 O   0  0  0  0  0  0  0  0  0  0  0  0
  -19.1208   40.1342  -21.9689 C   0  0  0  0  0  0  0  0  0  0  0  0
  -20.0211   39.3323  -22.6636 C   0  0  0  0  0  0  0  0  0  0  0  0
  -20.3607   38.1058  -22.1289 O   0  0  0  0  0  0  0  0  0  0  0  0
  -20.5593   39.7615  -23.8623 C   0  0  0  0  0  0  0  0  0  0  0  0
  -20.2284   40.9747  -24.3988 C   0  0  0  0  0  0  0  0  0  0  0  0
  -20.8047   41.3448  -25.6054 O   0  0  0  0  0  0  0  0  0  0  0  0
  -19.3332   41.7774  -23.7126 C   0  0  0  0  0  0  0  0  0  0  0  0
  -18.7917   41.3495  -22.5100 C   0  0  0  0  0  0  0  0  0  0  0  0
  -17.9023   42.1597  -21.8392 O   0  0  0  0  0  0  0  0  0  0  0  0
  -15.6795   42.8712  -19.0496 C   0  0  0  0  0  0  0  0  0  0  0  0
  -14.4937   43.5209  -18.8040 C   0  0  0  0  0  0  0  0  0  0  0  0
  1  2  1  0
  2  3  1  0
  3  4  2  0
  4  5  1  0
  5  6  2  0
  7  6  1  6
  7  8  1  0
  8  9  1  0
  9 10  2  0
  9 11  1  0
 11 12  2  0
 12 13  1  0
 12 14  1  0
 14 15  2  0
 15 16  1  0
 15 17  1  0
 17 18  2  0
 18 19  1  0
  6 20  1  0
 20 21  2  0
 21  3  1  0
 19  7  1  0
 18 11  1  0
M  END
$$$$
