
     RDKit          3D

 27 30  0  0  0  0  0  0  0  0999 V2000
  -23.4560   15.6586  -36.0557 F   0  0  0  0  0  0  0  0  0  0  0  0
  -22.2445   15.4807  -36.6692 C   0  0  0  0  0  0  0  0  0  0  0  0
  -21.7096   14.2980  -36.2354 F   0  0  0  0  0  0  0  0  0  0  0  0
  -22.3545   15.4112  -38.0454 F   0  0  0  0  0  0  0  0  0  0  0  0
  -21.3645   16.6451  -36.2957 C   0  0  0  0  0  0  0  0  0  0  0  0
  -21.2784   17.7750  -37.0747 C   0  0  0  0  0  0  0  0  0  0  0  0
  -20.4636   18.8389  -36.7183 C   0  0  0  0  0  0  0  0  0  0  0  0
  -19.7298   18.7574  -35.5633 C   0  0  0  0  0  0  0  0  0  0  0  0
  -19.7848   17.6435  -34.7516 C   0  0  0  0  0  0  0  0  0  0  0  0
  -19.0096   17.5866  -33.5595 N   0  0  0  0  0  0  0  0  0  0  0  0
  -17.5810   17.4676  -33.6726 C   0  0  0  0  0  0  0  0  0  0  0  0
  -16.9920   17.5205  -34.8785 N   0  0  0  0  0  0  0  0  0  0  0  0
  -15.6805   17.4070  -34.9875 C   0  0  0  0  0  0  0  0  0  0  0  0
  -14.9798   17.4647  -36.2874 C   0  0  0  0  0  0  0  0  0  0  0  0
  -13.6168   17.2739  -36.3630 C   0  0  0  0  0  0  0  0  0  0  0  0
  -12.9641   17.3287  -37.5845 C   0  0  0  0  0  0  0  0  0  0  0  0
  -13.6664   17.5749  -38.7458 C   0  0  0  0  0  0  0  0  0  0  0  0
  -15.0374   17.7634  -38.6426 C   0  0  0  0  0  0  0  0  0  0  0  0
  -15.6801   17.7090  -37.4365 C   0  0  0  0  0  0  0  0  0  0  0  0
  -14.9432   17.2376  -33.8737 N   0  0  0  0  0  0  0  0  0  0  0  0
  -15.4662   17.1765  -32.6451 C   0  0  0  0  0  0  0  0  0  0  0  0
  -14.7378   17.0081  -31.5407 N   0  0  0  0  0  0  0  0  0  0  0  0
  -15.3147   16.9509  -30.3078 C   0  0  0  0  0  0  0  0  0  0  0  0
  -16.6778   17.0635  -30.1342 C   0  0  0  0  0  0  0  0  0  0  0  0
  -17.4378   17.2390  -31.2843 C   0  0  0  0  0  0  0  0  0  0  0  0
  -16.8344   17.2944  -32.5255 C   0  0  0  0  0  0  0  0  0  0  0  0
  -20.6073   16.6027  -35.1376 C   0  0  0  0  0  0  0  0  0  0  0  0
  1  2  1  0
  2  3  1  0
  2  4  1  0
  2  5  1  0
  5  6  2  0
  6  7  1  0
  7  8  2  0
  8  9  1  0
  9 10  1  0
 10 11  1  0
 11 12  2  0
 12 13  1  0
 13 14  1  0
 14 15  2  0
 15 16  1  0
 16 17  2  0
 17 18  1  0
 18 19  2  0
 13 20  2  0
 20 21  1  0
 21 22  2  0
 22 23  1  0
 23 24  2  0
 24 25  1  0
 25 26  2  0
  9 27  2  0
 27  5  1  0
 26 11  1  0
 19 14  1  0
 26 21  1  0
M  END
$$$$
