
     RDKit          3D

 21 24  0  0  0  0  0  0  0  0999 V2000
  -13.0417   12.8680  -31.4096 C   0  0  0  0  0  0  0  0  0  0  0  0
  -14.0359   13.7347  -30.7268 C   0  0  0  0  0  0  0  0  0  0  0  0
  -14.5509   14.8530  -31.3641 C   0  0  0  0  0  0  0  0  0  0  0  0
  -15.4833   15.6233  -30.6607 C   0  0  0  0  0  0  0  0  0  0  0  0
  -15.9960   16.6648  -31.1886 N   0  0  0  0  0  0  0  0  0  0  0  0
  -16.0229   16.8627  -32.5917 C   0  0  0  0  0  0  0  0  0  0  0  0
  -14.9662   17.5311  -33.1689 C   0  0  0  0  0  0  0  0  0  0  0  0
  -14.9235   17.7640  -34.5500 C   0  0  0  0  0  0  0  0  0  0  0  0
  -15.9711   17.3062  -35.3289 C   0  0  0  0  0  0  0  0  0  0  0  0
  -15.9816   17.5097  -36.7089 C   0  0  0  0  0  0  0  0  0  0  0  0
  -17.0173   17.0604  -37.5009 C   0  0  0  0  0  0  0  0  0  0  0  0
  -18.0837   16.3898  -36.9439 C   0  0  0  0  0  0  0  0  0  0  0  0
  -18.0692   16.1908  -35.5789 C   0  0  0  0  0  0  0  0  0  0  0  0
  -17.0436   16.6316  -34.7679 C   0  0  0  0  0  0  0  0  0  0  0  0
  -17.0514   16.4185  -33.3909 C   0  0  0  0  0  0  0  0  0  0  0  0
  -15.8645   15.2910  -29.4147 N   0  0  0  0  0  0  0  0  0  0  0  0
  -16.7028   15.8192  -28.5389 N   0  0  0  0  0  0  0  0  0  0  0  0
  -16.7267   15.0898  -27.4117 C   0  0  0  0  0  0  0  0  0  0  0  0
  -15.8648   14.0606  -27.5923 N   0  0  0  0  0  0  0  0  0  0  0  0
  -15.3479   14.2046  -28.8279 C   0  0  0  0  0  0  0  0  0  0  0  0
  -14.4356   13.4229  -29.4747 N   0  0  0  0  0  0  0  0  0  0  0  0
  1  2  1  0
  2  3  2  0
  3  4  1  0
  4  5  2  0
  5  6  1  0
  6  7  2  0
  7  8  1  0
  8  9  2  0
  9 10  1  0
 10 11  2  0
 11 12  1  0
 12 13  2  0
 13 14  1  0
 14 15  2  0
  4 16  1  0
 16 17  1  0
 17 18  2  0
 18 19  1  0
 19 20  2  0
 20 21  1  0
 21  2  1  0
 15  6  1  0
 20 16  1  0
 14  9  1  0
M  END
$$$$
