
     RDKit          3D

 42 45  0  0  0  0  0  0  0  0999 V2000
  -32.5987   12.6536  -28.1254 C   0  0  0  0  0  0  0  0  0  0  0  0
  -32.7913   13.8366  -27.3795 O   0  0  0  0  0  0  0  0  0  0  0  0
  -31.8926   14.9042  -27.4300 C   0  0  0  0  0  0  0  0  0  0  0  0
  -31.4364   15.5447  -26.3126 C   0  0  0  0  0  0  0  0  0  0  0  0
  -30.5355   16.6107  -26.4046 C   0  0  0  0  0  0  0  0  0  0  0  0
  -30.0762   17.0538  -27.6262 C   0  0  0  0  0  0  0  0  0  0  0  0
  -29.1387   18.1642  -27.6848 C   0  0  0  0  0  0  0  0  0  0  0  0
  -27.9079   18.0287  -26.8760 C   0  0  2  0  0  0  0  0  0  0  0  0
  -27.1966   19.2636  -26.6130 N   0  0  0  0  0  0  0  0  0  0  0  0
  -27.8448   20.4516  -26.1800 C   0  0  0  0  0  0  0  0  0  0  0  0
  -27.8772   20.7239  -24.9506 O   0  0  0  0  0  0  0  0  0  0  0  0
  -28.4913   21.3974  -27.1227 C   0  0  2  0  0  0  0  0  0  0  0  0
  -29.6131   22.1743  -26.4752 C   0  0  0  0  0  0  0  0  0  0  0  0
  -28.9298   20.7277  -28.3306 N   0  0  0  0  0  0  0  0  0  0  0  0
  -29.4904   21.4803  -29.3879 C   0  0  0  0  0  0  0  0  0  0  0  0
  -30.7099   21.8651  -29.2456 O   0  0  0  0  0  0  0  0  0  0  0  0
  -28.8173   21.8574  -30.6301 C   0  0  0  0  0  0  0  0  0  0  0  0
  -28.5882   23.2518  -30.8393 N   0  0  0  0  0  0  0  0  0  0  0  0
  -27.2068   23.4377  -31.2827 C   0  0  0  0  0  0  0  0  0  0  0  0
  -26.9492   22.9992  -32.6798 C   0  0  0  0  0  0  0  0  0  0  0  0
  -27.7486   23.8235  -33.5104 O   0  0  0  0  0  0  0  0  0  0  0  0
  -29.0489   23.3844  -33.2726 C   0  0  0  0  0  0  0  0  0  0  0  0
  -29.4437   23.8061  -31.8841 C   0  0  0  0  0  0  0  0  0  0  0  0
  -26.9843   16.9660  -27.3752 C   0  0  0  0  0  0  0  0  0  0  0  0
  -26.4406   17.1395  -28.4853 O   0  0  0  0  0  0  0  0  0  0  0  0
  -26.6992   15.7840  -26.6621 N   0  0  0  0  0  0  0  0  0  0  0  0
  -25.7681   14.7489  -27.2153 C   0  0  1  0  0  0  0  0  0  0  0  0
  -25.5300   13.7481  -26.1189 C   0  0  0  0  0  0  0  0  0  0  0  0
  -24.7892   14.3215  -24.9998 C   0  0  0  0  0  0  0  0  0  0  0  0
  -25.4317   14.9477  -23.9239 C   0  0  0  0  0  0  0  0  0  0  0  0
  -24.7445   15.5027  -22.8755 C   0  0  0  0  0  0  0  0  0  0  0  0
  -23.3679   15.4634  -22.8422 C   0  0  0  0  0  0  0  0  0  0  0  0
  -22.7072   14.8547  -23.8842 C   0  0  0  0  0  0  0  0  0  0  0  0
  -23.4076   14.3020  -24.9293 C   0  0  0  0  0  0  0  0  0  0  0  0
  -26.4936   14.1566  -28.3579 C   0  0  0  0  0  0  0  0  0  0  0  0
  -27.4805   13.4494  -28.0947 O   0  0  0  0  0  0  0  0  0  0  0  0
  -26.1715   14.3236  -29.7831 C   0  0  1  0  0  0  0  0  0  0  0  0
  -26.8166   13.4167  -30.8132 C   0  0  0  0  0  0  0  0  0  0  0  0
  -25.7499   15.6530  -30.2656 C   0  0  0  0  0  0  0  0  0  0  0  0
  -24.8207   14.6545  -30.0030 O   0  0  0  0  0  0  0  0  0  0  0  0
  -30.5596   16.3815  -28.7273 C   0  0  0  0  0  0  0  0  0  0  0  0
  -31.4404   15.3358  -28.6672 C   0  0  0  0  0  0  0  0  0  0  0  0
  1  2  1  0
  2  3  1  0
  3  4  2  0
  4  5  1  0
  5  6  2  0
  6  7  1  0
  8  7  1  6
  8  9  1  0
  9 10  1  0
 10 11  2  0
 10 12  1  0
 12 13  1  1
 12 14  1  0
 14 15  1  0
 15 16  2  0
 15 17  1  0
 17 18  1  0
 18 19  1  0
 19 20  1  0
 20 21  1  0
 21 22  1  0
 22 23  1  0
  8 24  1  0
 24 25  2  0
 24 26  1  0
 26 27  1  0
 27 28  1  1
 28 29  1  0
 29 30  2  0
 30 31  1  0
 31 32  2  0
 32 33  1  0
 33 34  2  0
 27 35  1  0
 35 36  2  0
 35 37  1  0
 37 38  1  6
 37 39  1  0
 39 40  1  0
  6 41  1  0
 41 42  2  0
 42  3  1  0
 23 18  1  0
 34 29  1  0
 40 37  1  0
M  END
$$$$
