
     RDKit          3D

 45 45  0  0  0  0  0  0  0  0999 V2000
  -24.3993   21.3211  -39.9660 C   0  0  0  0  0  0  0  0  0  0  0  0
  -23.1930   20.8086  -40.3114 O   0  0  0  0  0  0  0  0  0  0  0  0
  -22.9894   19.5308  -40.4276 C   0  0  1  0  0  0  0  0  0  0  0  0
  -22.8205   19.0282  -41.8070 C   0  0  0  0  0  0  0  0  0  0  0  0
  -21.9689   19.6281  -42.5831 C   0  0  0  0  0  0  0  0  0  0  0  0
  -21.0785   20.7717  -42.3948 C   0  0  0  0  0  0  0  0  0  0  0  0
  -21.0662   22.0714  -42.2082 C   0  0  0  0  0  0  0  0  0  0  0  0
  -22.2722   23.0546  -42.1042 C   0  0  0  0  0  0  0  0  0  0  0  0
  -19.8718   22.9843  -42.0220 C   0  0  0  0  0  0  0  0  0  0  0  0
  -20.1822   24.2569  -41.7972 O   0  0  0  0  0  0  0  0  0  0  0  0
  -18.4605   22.8989  -42.0130 N   0  0  0  0  0  0  0  0  0  0  0  0
  -17.4299   22.2417  -41.2587 C   0  0  0  0  0  0  0  0  0  0  0  0
  -16.5399   21.6887  -42.1209 C   0  0  0  0  0  0  0  0  0  0  0  0
  -15.3565   20.9515  -41.7492 C   0  0  0  0  0  0  0  0  0  0  0  0
  -14.5582   20.4555  -42.6024 O   0  0  0  0  0  0  0  0  0  0  0  0
  -15.1380   20.8142  -40.3226 C   0  0  0  0  0  0  0  0  0  0  0  0
  -13.9320   20.0858  -39.9740 N   0  0  0  0  0  0  0  0  0  0  0  0
  -12.7072   20.8147  -40.1040 C   0  0  0  0  0  0  0  0  0  0  0  0
  -11.4926   20.0036  -39.7284 C   0  0  0  0  0  0  0  0  0  0  0  0
  -10.3082   20.8425  -39.8988 N   0  0  0  0  0  0  0  0  0  0  0  0
   -9.1368   20.0664  -39.5402 C   0  0  0  0  0  0  0  0  0  0  0  0
  -10.3734   22.0403  -39.1179 C   0  0  0  0  0  0  0  0  0  0  0  0
  -15.9551   21.3202  -39.3557 C   0  0  0  0  0  0  0  0  0  0  0  0
  -15.4231   20.9881  -38.0216 C   0  0  0  0  0  0  0  0  0  0  0  0
  -16.1238   19.8802  -37.2659 C   0  0  1  0  0  0  0  0  0  0  0  0
  -17.2923   20.4355  -36.5460 C   0  0  0  0  0  0  0  0  0  0  0  0
  -16.3151   18.6444  -38.0831 C   0  0  0  0  0  0  0  0  0  0  0  0
  -17.4795   17.8280  -37.7084 C   0  0  2  0  0  0  0  0  0  0  0  0
  -17.2054   16.8579  -36.7143 O   0  0  0  0  0  0  0  0  0  0  0  0
  -18.0183   16.9059  -35.6310 C   0  0  0  0  0  0  0  0  0  0  0  0
  -18.0861   17.0384  -38.8486 C   0  0  2  0  0  0  0  0  0  0  0  0
  -17.1901   16.1835  -39.4671 O   0  0  0  0  0  0  0  0  0  0  0  0
  -18.7404   17.8358  -39.9264 C   0  0  1  0  0  0  0  0  0  0  0  0
  -19.4059   16.8324  -40.8194 C   0  0  0  0  0  0  0  0  0  0  0  0
  -19.5638   18.9928  -39.4423 C   0  0  0  0  0  0  0  0  0  0  0  0
  -20.7595   19.4307  -39.2201 C   0  0  0  0  0  0  0  0  0  0  0  0
  -21.1793   20.8195  -38.6609 C   0  0  0  0  0  0  0  0  0  0  0  0
  -22.1297   18.7853  -39.4429 C   0  0  2  0  0  0  0  0  0  0  0  0
  -22.2733   17.4781  -39.7595 O   0  0  0  0  0  0  0  0  0  0  0  0
  -22.8763   16.4763  -39.0283 C   0  0  0  0  0  0  0  0  0  0  0  0
  -22.9012   15.1669  -39.5810 N   0  0  0  0  0  0  0  0  0  0  0  0
  -23.3623   16.7741  -37.9321 O   0  0  0  0  0  0  0  0  0  0  0  0
  -17.1327   22.0539  -39.8258 C   0  0  0  0  0  0  0  0  0  0  0  0
  -17.9601   22.5667  -38.9020 O   0  0  0  0  0  0  0  0  0  0  0  0
  -17.3238   19.9766  -39.5606 Cl  0  0  0  0  0  0  0  0  0  0  0  0
  1  2  1  0
  3  2  1  6
  3  4  1  0
  4  5  2  0
  5  6  1  0
  6  7  2  0
  7  8  1  0
  7  9  1  0
  9 10  2  0
  9 11  1  0
 11 12  1  0
 12 13  2  0
 13 14  1  0
 14 15  2  0
 14 16  1  0
 16 17  1  0
 17 18  1  0
 18 19  1  0
 19 20  1  0
 20 21  1  0
 20 22  1  0
 16 23  2  0
 23 24  1  0
 24 25  1  0
 25 26  1  6
 25 27  1  0
 27 28  1  0
 28 29  1  1
 29 30  1  0
 28 31  1  0
 31 32  1  6
 31 33  1  0
 33 34  1  1
 33 35  1  0
 35 36  2  0
 36 37  1  0
 36 38  1  0
 38 39  1  6
 39 40  1  0
 40 41  1  0
 40 42  2  0
 23 43  1  0
 43 44  2  0
 38  3  1  0
 43 12  1  0
M  END
$$$$
