
     RDKit          3D

 29 31  0  0  0  0  0  0  0  0999 V2000
  -28.9042   19.2397  -27.8405 Cl  0  0  0  0  0  0  0  0  0  0  0  0
  -26.7442   20.8146  -27.6601 C   0  0  0  0  0  0  0  0  0  0  0  0
  -27.7795   19.7896  -27.4623 N   0  0  0  0  0  0  0  0  0  0  0  0
  -27.5696   18.7145  -26.7246 C   0  0  0  0  0  0  0  0  0  0  0  0
  -26.4739   18.5046  -26.1496 O   0  0  0  0  0  0  0  0  0  0  0  0
  -28.6159   17.7582  -26.5724 C   0  0  0  0  0  0  0  0  0  0  0  0
  -28.3292   16.7194  -25.8255 O   0  0  0  0  0  0  0  0  0  0  0  0
  -28.7180   15.5848  -25.2965 C   0  0  0  0  0  0  0  0  0  0  0  0
  -29.9615   14.9781  -25.4370 C   0  0  0  0  0  0  0  0  0  0  0  0
  -30.2951   13.7768  -24.8450 C   0  0  0  0  0  0  0  0  0  0  0  0
  -29.3768   13.1170  -24.0696 C   0  0  0  0  0  0  0  0  0  0  0  0
  -29.6359   11.9396  -23.4617 F   0  0  0  0  0  0  0  0  0  0  0  0
  -28.1393   13.6917  -23.9121 C   0  0  0  0  0  0  0  0  0  0  0  0
  -27.7836   14.8754  -24.4844 C   0  0  0  0  0  0  0  0  0  0  0  0
  -26.5728   15.4411  -24.3325 F   0  0  0  0  0  0  0  0  0  0  0  0
  -29.8258   18.0061  -27.2171 C   0  0  0  0  0  0  0  0  0  0  0  0
  -29.9951   19.1335  -27.9699 C   0  0  0  0  0  0  0  0  0  0  0  0
  -31.1806   19.4366  -28.6380 C   0  0  0  0  0  0  0  0  0  0  0  0
  -31.3395   20.5425  -29.3733 N   0  0  0  0  0  0  0  0  0  0  0  0
  -30.3182   21.4068  -29.4800 C   0  0  0  0  0  0  0  0  0  0  0  0
  -30.4274   22.6061  -30.2505 N   0  0  0  0  0  0  0  0  0  0  0  0
  -29.2722   23.4757  -30.3080 C   0  0  0  0  0  0  0  0  0  0  0  0
  -29.5536   24.6983  -31.1535 C   0  0  0  0  0  0  0  0  0  0  0  0
  -29.2295   24.3456  -32.5788 C   0  0  0  0  0  0  0  0  0  0  0  0
  -27.9030   24.0767  -32.8050 O   0  0  0  0  0  0  0  0  0  0  0  0
  -27.2426   23.4615  -31.7776 C   0  0  0  0  0  0  0  0  0  0  0  0
  -28.1280   22.6687  -30.8541 C   0  0  0  0  0  0  0  0  0  0  0  0
  -29.1772   21.1206  -28.8403 N   0  0  0  0  0  0  0  0  0  0  0  0
  -28.9552   20.0335  -28.0906 C   0  0  0  0  0  0  0  0  0  0  0  0
  2  3  1  0
  3  4  1  0
  4  5  2  0
  4  6  1  0
  6  7  1  0
  7  8  1  0
  8  9  2  0
  9 10  1  0
 10 11  2  0
 11 12  1  0
 11 13  1  0
 13 14  2  0
 14 15  1  0
  6 16  2  0
 16 17  1  0
 17 18  2  0
 18 19  1  0
 19 20  2  0
 20 21  1  0
 21 22  1  0
 22 23  1  0
 23 24  1  0
 24 25  1  0
 25 26  1  0
 26 27  1  0
 20 28  1  0
 28 29  2  0
 29  3  1  0
 14  8  1  0
 29 17  1  0
 27 22  1  0
M  END
$$$$
