
     RDKit          3D

 24 25  0  0  0  0  0  0  0  0999 V2000
  -20.5550   39.2429  -24.7306 C   0  0  0  0  0  0  0  0  0  0  0  0
  -19.0917   39.0001  -24.5018 C   0  0  0  0  0  0  0  0  0  0  0  0
  -18.8627   38.6792  -23.0850 C   0  0  0  0  0  0  0  0  0  0  0  0
  -19.1167   37.3872  -22.6666 C   0  0  0  0  0  0  0  0  0  0  0  0
  -19.7230   36.3603  -23.4897 C   0  0  0  0  0  0  0  0  0  0  0  0
  -20.1208   36.4923  -24.6509 O   0  0  0  0  0  0  0  0  0  0  0  0
  -19.8901   35.0777  -22.9448 O   0  0  0  0  0  0  0  0  0  0  0  0
  -20.4787   34.0218  -23.6928 C   0  0  0  0  0  0  0  0  0  0  0  0
  -18.8283   37.0618  -21.3636 N   0  0  0  0  0  0  0  0  0  0  0  0
  -18.3236   37.9405  -20.5101 C   0  0  0  0  0  0  0  0  0  0  0  0
  -18.0634   39.2391  -20.8975 C   0  0  0  0  0  0  0  0  0  0  0  0
  -17.5915   40.3087  -20.2584 N   0  0  0  0  0  0  0  0  0  0  0  0
  -17.5616   41.3448  -21.1083 C   0  0  0  0  0  0  0  0  0  0  0  0
  -17.1754   42.6604  -20.9231 C   0  0  0  0  0  0  0  0  0  0  0  0
  -17.2443   43.5826  -21.9359 C   0  0  0  0  0  0  0  0  0  0  0  0
  -16.8537   44.8968  -21.7407 O   0  0  0  0  0  0  0  0  0  0  0  0
  -16.3600   45.4437  -20.5486 C   0  0  0  0  0  0  0  0  0  0  0  0
  -17.7210   43.1580  -23.1769 C   0  0  0  0  0  0  0  0  0  0  0  0
  -17.7763   44.1205  -24.1730 O   0  0  0  0  0  0  0  0  0  0  0  0
  -18.2493   43.7374  -25.4332 C   0  0  0  0  0  0  0  0  0  0  0  0
  -18.1120   41.8510  -23.3876 C   0  0  0  0  0  0  0  0  0  0  0  0
  -18.0277   40.9583  -22.3578 C   0  0  0  0  0  0  0  0  0  0  0  0
  -18.3465   39.6017  -22.2195 C   0  0  0  0  0  0  0  0  0  0  0  0
  -18.8776   39.6590  -23.0748 Cl  0  0  0  0  0  0  0  0  0  0  0  0
  1  2  1  0
  2  3  1  0
  3  4  2  0
  4  5  1  0
  5  6  2  0
  5  7  1  0
  7  8  1  0
  4  9  1  0
  9 10  2  0
 10 11  1  0
 11 12  1  0
 12 13  1  0
 13 14  2  0
 14 15  1  0
 15 16  1  0
 16 17  1  0
 15 18  2  0
 18 19  1  0
 19 20  1  0
 18 21  1  0
 21 22  2  0
 22 23  1  0
 23  3  1  0
 23 11  2  0
 22 13  1  0
M  END
$$$$
