
     RDKit          3D

 17 17  0  0  0  0  0  0  0  0999 V2000
  -14.6779   42.8936  -19.4351 C   0  0  0  0  0  0  0  0  0  0  0  0
  -15.0540   41.5086  -19.9310 C   0  0  0  0  0  0  0  0  0  0  0  0
  -15.7695   41.6562  -21.2548 C   0  0  0  0  0  0  0  0  0  0  0  0
  -16.0591   40.3012  -21.8754 C   0  0  0  0  0  0  0  0  0  0  0  0
  -17.0797   39.5256  -21.1011 C   0  0  0  0  0  0  0  0  0  0  0  0
  -17.8108   38.5926  -21.9914 C   0  0  0  0  0  0  0  0  0  0  0  0
  -17.1967   38.0248  -22.8691 O   0  0  0  0  0  0  0  0  0  0  0  0
  -19.2644   38.3238  -21.8591 C   0  0  0  0  0  0  0  0  0  0  0  0
  -19.5094   36.8875  -22.0352 C   0  0  0  0  0  0  0  0  0  0  0  0
  -20.7290   36.5605  -22.2677 O   0  0  0  0  0  0  0  0  0  0  0  0
  -18.5378   35.8548  -21.9719 N   0  0  0  0  0  0  0  0  0  0  0  0
  -18.9963   34.4915  -22.0920 C   0  0  1  0  0  0  0  0  0  0  0  0
  -18.3752   33.7390  -23.2463 C   0  0  0  0  0  0  0  0  0  0  0  0
  -18.6221   32.2944  -22.8009 C   0  0  0  0  0  0  0  0  0  0  0  0
  -18.3721   32.3763  -21.4040 O   0  0  0  0  0  0  0  0  0  0  0  0
  -18.6192   33.6577  -20.9418 C   0  0  0  0  0  0  0  0  0  0  0  0
  -18.5432   34.0644  -19.7566 O   0  0  0  0  0  0  0  0  0  0  0  0
  1  2  1  0
  2  3  1  0
  3  4  1  0
  4  5  1  0
  5  6  1  0
  6  7  2  0
  6  8  1  0
  8  9  1  0
  9 10  2  0
  9 11  1  0
 12 11  1  1
 12 13  1  0
 13 14  1  0
 14 15  1  0
 15 16  1  0
 16 17  2  0
 16 12  1  0
M  END
$$$$
