
     RDKit          3D

 23 26  0  0  0  0  0  0  0  0999 V2000
  -10.3714    8.9973  -47.0294 C   0  0  0  0  0  0  0  0  0  0  0  0
   -9.8543    7.7636  -46.3810 C   0  0  0  0  0  0  0  0  0  0  0  0
  -10.1377    7.5742  -45.1031 C   0  0  0  0  0  0  0  0  0  0  0  0
   -9.2792    7.6944  -43.9304 C   0  0  0  0  0  0  0  0  0  0  0  0
   -8.1670    8.2636  -43.9237 O   0  0  0  0  0  0  0  0  0  0  0  0
   -9.9301    7.0411  -42.7635 C   0  0  0  0  0  0  0  0  0  0  0  0
  -10.9611    6.2163  -43.4481 C   0  0  1  0  0  0  0  0  0  0  0  0
  -12.0871    5.7085  -42.6574 C   0  0  2  0  0  0  0  0  0  0  0  0
  -11.6256    4.8902  -41.4682 C   0  0  0  0  0  0  0  0  0  0  0  0
  -12.8617    4.6572  -40.6242 C   0  0  0  0  0  0  0  0  0  0  0  0
  -13.8031    3.8684  -41.4658 C   0  0  0  0  0  0  0  0  0  0  0  0
  -14.5116    2.9425  -40.8493 C   0  0  0  0  0  0  0  0  0  0  0  0
  -15.4653    2.1120  -41.5849 C   0  0  0  0  0  0  0  0  0  0  0  0
  -16.4332    1.5662  -41.0298 O   0  0  0  0  0  0  0  0  0  0  0  0
  -15.2700    1.9153  -43.0421 C   0  0  0  0  0  0  0  0  0  0  0  0
  -14.0982    2.7037  -43.5674 C   0  0  0  0  0  0  0  0  0  0  0  0
  -13.9786    4.0642  -42.9031 C   0  0  1  0  0  0  0  0  0  0  0  0
  -15.2997    4.8221  -43.0942 C   0  0  0  0  0  0  0  0  0  0  0  0
  -12.8619    4.7818  -43.5835 C   0  0  1  0  0  0  0  0  0  0  0  0
  -13.3619    5.6030  -44.7321 C   0  0  0  0  0  0  0  0  0  0  0  0
  -12.3051    6.3701  -45.4527 C   0  0  0  0  0  0  0  0  0  0  0  0
  -11.4680    7.1722  -44.5211 C   0  0  2  0  0  0  0  0  0  0  0  0
  -12.1082    8.3920  -43.9707 C   0  0  0  0  0  0  0  0  0  0  0  0
  1  2  1  0
  2  3  2  0
  3  4  1  0
  4  5  2  0
  4  6  1  0
  7  6  1  1
  7  8  1  0
  8  9  1  1
  9 10  1  0
 10 11  1  0
 11 12  2  0
 12 13  1  0
 13 14  2  0
 13 15  1  0
 15 16  1  0
 16 17  1  0
 17 18  1  1
 17 19  1  0
 19 20  1  6
 20 21  1  0
 21 22  1  0
 22 23  1  1
 22  3  1  0
 22  7  1  0
 19  8  1  0
 17 11  1  0
M  END
$$$$
