
     RDKit          3D

 28 31  0  0  0  0  0  0  0  0999 V2000
  -45.6942    5.7705  -43.7078 C   0  0  0  0  0  0  0  0  0  0  0  0
  -44.2436    5.4749  -43.4971 C   0  0  0  0  0  0  0  0  0  0  0  0
  -43.6345    4.6112  -44.1855 O   0  0  0  0  0  0  0  0  0  0  0  0
  -43.4877    6.1266  -42.5408 O   0  0  0  0  0  0  0  0  0  0  0  0
  -42.0635    6.1572  -42.5586 C   0  0  2  0  0  0  0  0  0  0  0  0
  -41.5084    5.6760  -43.8193 C   0  0  0  0  0  0  0  0  0  0  0  0
  -40.9392    4.3206  -44.0194 C   0  0  0  0  0  0  0  0  0  0  0  0
  -41.5103    6.4352  -44.7768 O   0  0  0  0  0  0  0  0  0  0  0  0
  -41.4930    5.4799  -41.3224 C   0  0  0  0  0  0  0  0  0  0  0  0
  -41.6545    6.5050  -40.1878 C   0  0  0  0  0  0  0  0  0  0  0  0
  -42.3655    7.6409  -40.8366 C   0  0  1  0  0  0  0  0  0  0  0  0
  -42.2699    8.9568  -40.1767 C   0  0  2  0  0  0  0  0  0  0  0  0
  -43.2913    8.9737  -39.0675 C   0  0  0  0  0  0  0  0  0  0  0  0
  -43.7401   10.1348  -38.6191 C   0  0  0  0  0  0  0  0  0  0  0  0
  -44.9380   10.2280  -37.3208 Cl  0  0  0  0  0  0  0  0  0  0  0  0
  -43.2444   11.3981  -39.2005 C   0  0  0  0  0  0  0  0  0  0  0  0
  -43.5358   12.5515  -38.6247 C   0  0  0  0  0  0  0  0  0  0  0  0
  -43.0270   13.7655  -39.2316 C   0  0  0  0  0  0  0  0  0  0  0  0
  -42.9684   14.8035  -38.5372 O   0  0  0  0  0  0  0  0  0  0  0  0
  -42.5725   13.8386  -40.6347 C   0  0  0  0  0  0  0  0  0  0  0  0
  -42.7018   12.5238  -41.3542 C   0  0  0  0  0  0  0  0  0  0  0  0
  -42.4140   11.3647  -40.4397 C   0  0  1  0  0  0  0  0  0  0  0  0
  -40.9451   11.4706  -40.0396 C   0  0  0  0  0  0  0  0  0  0  0  0
  -42.6804   10.0604  -41.1219 C   0  0  1  0  0  0  0  0  0  0  0  0
  -42.0749    9.9725  -42.4744 C   0  0  0  0  0  0  0  0  0  0  0  0
  -42.4238    8.5989  -43.0669 C   0  0  0  0  0  0  0  0  0  0  0  0
  -41.7108    7.6039  -42.2294 C   0  0  2  0  0  0  0  0  0  0  0  0
  -40.2591    7.8723  -42.1072 C   0  0  0  0  0  0  0  0  0  0  0  0
  1  2  1  0
  2  3  2  0
  2  4  1  0
  5  4  1  6
  5  6  1  0
  6  7  1  0
  6  8  2  0
  5  9  1  0
  9 10  1  0
 11 10  1  1
 11 12  1  0
 12 13  1  1
 13 14  2  0
 14 15  1  0
 14 16  1  0
 16 17  2  0
 17 18  1  0
 18 19  2  0
 18 20  1  0
 20 21  1  0
 21 22  1  0
 22 23  1  1
 22 24  1  0
 24 25  1  6
 25 26  1  0
 26 27  1  0
 27 28  1  1
 27  5  1  0
 27 11  1  0
 24 12  1  0
 22 16  1  0
M  END
$$$$
