
     RDKit          3D

 17 18  0  0  0  0  0  0  0  0999 V2000
  -14.7051   44.7911  -20.9365 C   0  0  0  0  0  0  0  0  0  0  0  0
  -15.9240   44.1062  -20.3845 C   0  0  0  0  0  0  0  0  0  0  0  0
  -16.1559   42.8041  -21.1192 C   0  0  0  0  0  0  0  0  0  0  0  0
  -17.1882   42.0511  -20.5128 O   0  0  0  0  0  0  0  0  0  0  0  0
  -17.5402   40.8489  -21.1219 C   0  0  0  0  0  0  0  0  0  0  0  0
  -16.7681   40.3129  -22.1377 C   0  0  0  0  0  0  0  0  0  0  0  0
  -17.1365   39.1217  -22.7254 C   0  0  0  0  0  0  0  0  0  0  0  0
  -18.2588   38.4274  -22.3407 C   0  0  0  0  0  0  0  0  0  0  0  0
  -18.6434   37.1363  -22.9873 C   0  0  0  0  0  0  0  0  0  0  0  0
  -18.0423   35.8056  -21.9312 S   0  0  0  0  0  0  0  0  0  0  0  0
  -19.1410   34.4141  -21.9582 C   0  0  0  0  0  0  0  0  0  0  0  0
  -18.8868   33.1300  -22.2778 N   0  0  0  0  0  0  0  0  0  0  0  0
  -19.9844   32.4001  -22.1710 N   0  0  0  0  0  0  0  0  0  0  0  0
  -21.0019   33.2080  -21.7708 C   0  0  0  0  0  0  0  0  0  0  0  0
  -20.4620   34.4336  -21.6477 N   0  0  0  0  0  0  0  0  0  0  0  0
  -19.0410   38.9425  -21.3323 C   0  0  0  0  0  0  0  0  0  0  0  0
  -18.6667   40.1321  -20.7505 C   0  0  0  0  0  0  0  0  0  0  0  0
  1  2  1  0
  2  3  1  0
  3  4  1  0
  4  5  1  0
  5  6  2  0
  6  7  1  0
  7  8  2  0
  8  9  1  0
  9 10  1  0
 10 11  1  0
 11 12  2  0
 12 13  1  0
 13 14  2  0
 14 15  1  0
  8 16  1  0
 16 17  2  0
 17  5  1  0
 15 11  1  0
M  END
$$$$
