
     RDKit          3D

 27 30  0  0  0  0  0  0  0  0999 V2000
  -10.2280   25.3635  -48.1603 O   0  0  0  0  0  0  0  0  0  0  0  0
  -10.9539   25.4637  -46.9599 C   0  0  0  0  0  0  0  0  0  0  0  0
  -11.6720   24.1781  -46.6343 C   0  0  0  0  0  0  0  0  0  0  0  0
  -10.7770   23.2204  -46.1134 N   0  0  0  0  0  0  0  0  0  0  0  0
  -10.2013   23.4093  -44.8550 C   0  0  0  0  0  0  0  0  0  0  0  0
  -10.1161   22.1810  -43.9646 C   0  0  0  0  0  0  0  0  0  0  0  0
   -9.9006   21.0510  -44.7738 N   0  0  0  0  0  0  0  0  0  0  0  0
  -10.1233   19.7610  -44.2962 C   0  0  0  0  0  0  0  0  0  0  0  0
  -11.3929   19.6570  -43.4577 C   0  0  0  0  0  0  0  0  0  0  0  0
  -11.6481   18.2131  -43.0832 C   0  0  0  0  0  0  0  0  0  0  0  0
  -12.6316   18.0930  -42.0458 N   0  0  0  0  0  0  0  0  0  0  0  0
  -13.9993   18.2724  -42.4413 C   0  0  0  0  0  0  0  0  0  0  0  0
  -14.3087   18.5508  -43.7778 C   0  0  0  0  0  0  0  0  0  0  0  0
  -15.6019   18.7415  -44.2248 C   0  0  0  0  0  0  0  0  0  0  0  0
  -16.6538   18.6612  -43.3512 C   0  0  0  0  0  0  0  0  0  0  0  0
  -16.3839   18.3889  -42.0320 C   0  0  0  0  0  0  0  0  0  0  0  0
  -15.0828   18.2028  -41.6098 C   0  0  0  0  0  0  0  0  0  0  0  0
  -14.8270   17.8745  -39.8740 S   0  0  0  0  0  0  0  0  0  0  0  0
  -13.0871   17.6830  -39.6405 C   0  0  0  0  0  0  0  0  0  0  0  0
  -12.6508   17.4021  -38.3855 C   0  0  0  0  0  0  0  0  0  0  0  0
  -11.3178   17.2248  -38.0822 C   0  0  0  0  0  0  0  0  0  0  0  0
  -10.4325   17.3473  -39.1280 C   0  0  0  0  0  0  0  0  0  0  0  0
   -8.7309   17.1207  -38.7785 Cl  0  0  0  0  0  0  0  0  0  0  0  0
  -10.8801   17.6321  -40.3972 C   0  0  0  0  0  0  0  0  0  0  0  0
  -12.2250   17.8107  -40.7006 C   0  0  0  0  0  0  0  0  0  0  0  0
   -9.4614   21.2470  -46.1042 C   0  0  0  0  0  0  0  0  0  0  0  0
  -10.4258   22.1145  -46.9075 C   0  0  0  0  0  0  0  0  0  0  0  0
  1  2  1  0
  2  3  1  0
  3  4  1  0
  4  5  1  0
  5  6  1  0
  6  7  1  0
  7  8  1  0
  8  9  1  0
  9 10  1  0
 10 11  1  0
 11 12  1  0
 12 13  2  0
 13 14  1  0
 14 15  2  0
 15 16  1  0
 16 17  2  0
 17 18  1  0
 18 19  1  0
 19 20  2  0
 20 21  1  0
 21 22  2  0
 22 23  1  0
 22 24  1  0
 24 25  2  0
  7 26  1  0
 26 27  1  0
 27  4  1  0
 25 11  1  0
 17 12  1  0
 25 19  1  0
M  END
$$$$
