
     RDKit          3D

 36 40  0  0  0  0  0  0  0  0999 V2000
  -19.8409   33.4371  -22.0260 C   0  0  0  0  0  0  0  0  0  0  0  0
  -19.1470   34.5278  -21.2410 C   0  0  0  0  0  0  0  0  0  0  0  0
  -17.6656   34.5641  -21.5526 C   0  0  0  0  0  0  0  0  0  0  0  0
  -16.8088   35.8890  -20.7047 S   0  0  0  0  0  0  0  0  0  0  0  0
  -17.1699   37.4951  -21.3929 C   0  0  0  0  0  0  0  0  0  0  0  0
  -16.5439   38.5708  -20.8723 N   0  0  0  0  0  0  0  0  0  0  0  0
  -16.7791   39.8237  -21.3562 C   0  0  0  0  0  0  0  0  0  0  0  0
  -16.1018   40.9243  -20.7786 N   0  0  0  0  0  0  0  0  0  0  0  0
  -16.6949   42.2002  -20.5302 C   0  0  2  0  0  0  0  0  0  0  0  0
  -16.0077   43.3876  -21.0804 C   0  0  0  0  0  0  0  0  0  0  0  0
  -16.0485   43.1628  -19.5986 C   0  0  1  0  0  0  0  0  0  0  0  0
  -16.9012   44.1386  -18.8717 C   0  0  0  0  0  0  0  0  0  0  0  0
  -16.4526   44.6823  -17.6982 C   0  0  0  0  0  0  0  0  0  0  0  0
  -17.2094   45.5832  -16.9994 C   0  0  0  0  0  0  0  0  0  0  0  0
  -18.4430   45.9589  -17.4704 C   0  0  0  0  0  0  0  0  0  0  0  0
  -19.2354   46.8446  -16.8227 F   0  0  0  0  0  0  0  0  0  0  0  0
  -18.8912   45.4150  -18.6442 C   0  0  0  0  0  0  0  0  0  0  0  0
  -20.1146   45.7694  -19.1380 F   0  0  0  0  0  0  0  0  0  0  0  0
  -18.1270   44.5063  -19.3483 C   0  0  0  0  0  0  0  0  0  0  0  0
  -17.6727   39.9379  -22.3864 C   0  0  0  0  0  0  0  0  0  0  0  0
  -18.1094   40.9994  -23.0635 N   0  0  0  0  0  0  0  0  0  0  0  0
  -18.9791   40.6303  -23.9819 N   0  0  0  0  0  0  0  0  0  0  0  0
  -19.1201   39.3180  -23.9137 N   0  0  0  0  0  0  0  0  0  0  0  0
  -19.9789   38.5421  -24.7471 C   0  0  2  0  0  0  0  0  0  0  0  0
  -19.6980   38.6231  -26.2088 C   0  0  0  0  0  0  0  0  0  0  0  0
  -21.0238   38.5360  -26.9325 C   0  0  2  0  0  0  0  0  0  0  0  0
  -21.2408   39.7107  -27.5969 O   0  0  0  0  0  0  0  0  0  0  0  0
  -21.5324   39.5892  -28.9291 C   0  0  0  0  0  0  0  0  0  0  0  0
  -22.8618   40.1371  -29.3495 C   0  0  0  0  0  0  0  0  0  0  0  0
  -22.9316   41.4730  -29.0306 O   0  0  0  0  0  0  0  0  0  0  0  0
  -22.0250   38.2709  -25.8334 C   0  0  1  0  0  0  0  0  0  0  0  0
  -21.9327   36.9212  -25.4970 O   0  0  0  0  0  0  0  0  0  0  0  0
  -21.4263   39.0508  -24.6831 C   0  0  1  0  0  0  0  0  0  0  0  0
  -22.0055   38.7048  -23.4667 O   0  0  0  0  0  0  0  0  0  0  0  0
  -18.3342   38.8524  -22.9454 C   0  0  0  0  0  0  0  0  0  0  0  0
  -18.0525   37.6439  -22.4167 N   0  0  0  0  0  0  0  0  0  0  0  0
  1  2  1  0
  2  3  1  0
  3  4  1  0
  4  5  1  0
  5  6  2  0
  6  7  1  0
  7  8  1  0
  9  8  1  6
  9 10  1  0
 10 11  1  0
 11 12  1  1
 12 13  2  0
 13 14  1  0
 14 15  2  0
 15 16  1  0
 15 17  1  0
 17 18  1  0
 17 19  2  0
  7 20  2  0
 20 21  1  0
 21 22  2  0
 22 23  1  0
 24 23  1  1
 24 25  1  0
 25 26  1  0
 26 27  1  1
 27 28  1  0
 28 29  1  0
 29 30  1  0
 26 31  1  0
 31 32  1  1
 31 33  1  0
 33 34  1  1
 23 35  1  0
 35 36  2  0
 36  5  1  0
 11  9  1  0
 19 12  1  0
 35 20  1  0
 33 24  1  0
M  END
$$$$
