
     RDKit          3D

 30 33  0  0  0  0  0  0  0  0999 V2000
  -23.3124   14.9132  -32.2058 C   0  0  0  0  0  0  0  0  0  0  0  0
  -24.7683   14.5779  -32.0089 C   0  0  0  0  0  0  0  0  0  0  0  0
  -25.4785   15.7795  -31.6644 N   0  0  0  0  0  0  0  0  0  0  0  0
  -26.1804   15.9563  -30.4406 C   0  0  0  0  0  0  0  0  0  0  0  0
  -26.1987   14.9922  -29.6340 O   0  0  0  0  0  0  0  0  0  0  0  0
  -26.8696   17.2001  -30.0949 C   0  0  0  0  0  0  0  0  0  0  0  0
  -27.0539   17.3954  -28.6151 C   0  0  2  0  0  0  0  0  0  0  0  0
  -27.9161   16.3323  -28.0710 N   0  0  0  0  0  0  0  0  0  0  0  0
  -28.3687   16.1936  -26.8665 C   0  0  0  0  0  0  0  0  0  0  0  0
  -29.2178   15.0707  -26.5228 C   0  0  0  0  0  0  0  0  0  0  0  0
  -29.7984   15.1610  -25.2511 C   0  0  0  0  0  0  0  0  0  0  0  0
  -30.5384   14.1368  -24.7444 C   0  0  0  0  0  0  0  0  0  0  0  0
  -30.7219   12.9876  -25.4945 C   0  0  0  0  0  0  0  0  0  0  0  0
  -31.6548   11.6362  -24.9183 Cl  0  0  0  0  0  0  0  0  0  0  0  0
  -30.1456   12.8998  -26.7520 C   0  0  0  0  0  0  0  0  0  0  0  0
  -29.4026   13.9408  -27.2453 C   0  0  0  0  0  0  0  0  0  0  0  0
  -27.9846   17.0775  -25.7715 C   0  0  0  0  0  0  0  0  0  0  0  0
  -27.7875   16.4443  -24.5617 C   0  0  0  0  0  0  0  0  0  0  0  0
  -27.4109   17.1926  -23.4685 C   0  0  0  0  0  0  0  0  0  0  0  0
  -27.2328   16.5035  -22.2826 O   0  0  0  0  0  0  0  0  0  0  0  0
  -26.3750   15.4300  -22.0861 C   0  0  0  0  0  0  0  0  0  0  0  0
  -27.2255   18.5789  -23.5826 C   0  0  0  0  0  0  0  0  0  0  0  0
  -27.4134   19.2287  -24.7867 C   0  0  0  0  0  0  0  0  0  0  0  0
  -27.7878   18.4491  -25.8349 C   0  0  0  0  0  0  0  0  0  0  0  0
  -27.9095   19.2048  -27.0590 N   0  0  0  0  0  0  0  0  0  0  0  0
  -28.3562   20.4393  -27.0828 C   0  0  0  0  0  0  0  0  0  0  0  0
  -28.8823   21.2429  -25.9685 C   0  0  0  0  0  0  0  0  0  0  0  0
  -28.2876   20.7920  -28.4056 N   0  0  0  0  0  0  0  0  0  0  0  0
  -27.8074   19.7577  -29.1206 N   0  0  0  0  0  0  0  0  0  0  0  0
  -27.5619   18.7460  -28.3031 C   0  0  0  0  0  0  0  0  0  0  0  0
  1  2  1  0
  2  3  1  0
  3  4  1  0
  4  5  2  0
  4  6  1  0
  7  6  1  6
  7  8  1  0
  8  9  2  0
  9 10  1  0
 10 11  2  0
 11 12  1  0
 12 13  2  0
 13 14  1  0
 13 15  1  0
 15 16  2  0
  9 17  1  0
 17 18  2  0
 18 19  1  0
 19 20  1  0
 20 21  1  0
 19 22  2  0
 22 23  1  0
 23 24  2  0
 24 25  1  0
 25 26  1  0
 26 27  1  0
 26 28  2  0
 28 29  1  0
 29 30  2  0
 30  7  1  0
 16 10  1  0
 24 17  1  0
 30 25  1  0
M  END
$$$$
