
     RDKit          3D

 30 34  0  0  0  0  0  0  0  0999 V2000
  -23.5323   23.0983  -39.7262 C   0  0  0  0  0  0  0  0  0  0  0  0
  -22.7171   22.9302  -38.5315 N   0  0  0  0  0  0  0  0  0  0  0  0
  -23.0050   21.6671  -37.8769 C   0  0  0  0  0  0  0  0  0  0  0  0
  -22.0319   21.4896  -36.7428 C   0  0  2  0  0  0  0  0  0  0  0  0
  -22.3820   20.2022  -36.0306 C   0  0  0  0  0  0  0  0  0  0  0  0
  -21.2365   19.4544  -35.6297 N   0  0  0  0  0  0  0  0  0  0  0  0
  -20.9772   19.1013  -34.2693 C   0  0  0  0  0  0  0  0  0  0  0  0
  -21.8797   18.5921  -33.5826 O   0  0  0  0  0  0  0  0  0  0  0  0
  -19.7393   19.3292  -33.7436 O   0  0  0  0  0  0  0  0  0  0  0  0
  -19.2602   18.8525  -32.5199 C   0  0  0  0  0  0  0  0  0  0  0  0
  -17.8537   19.1555  -32.2347 C   0  0  0  0  0  0  0  0  0  0  0  0
  -16.8644   18.4855  -32.9615 C   0  0  0  0  0  0  0  0  0  0  0  0
  -15.5603   18.7595  -32.6816 C   0  0  0  0  0  0  0  0  0  0  0  0
  -15.1752   19.6632  -31.7190 C   0  0  0  0  0  0  0  0  0  0  0  0
  -16.1767   20.2992  -31.0282 C   0  0  0  0  0  0  0  0  0  0  0  0
  -17.5206   20.0568  -31.2735 C   0  0  0  0  0  0  0  0  0  0  0  0
  -22.0780   22.6079  -35.7385 C   0  0  0  0  0  0  0  0  0  0  0  0
  -22.3870   23.9464  -36.3008 C   0  0  2  0  0  0  0  0  0  0  0  0
  -23.0840   24.8551  -35.3672 C   0  0  0  0  0  0  0  0  0  0  0  0
  -23.1363   24.6545  -33.9815 C   0  0  0  0  0  0  0  0  0  0  0  0
  -23.8153   25.5900  -33.2243 C   0  0  0  0  0  0  0  0  0  0  0  0
  -24.4284   26.6950  -33.8066 C   0  0  0  0  0  0  0  0  0  0  0  0
  -24.3751   26.8898  -35.1719 C   0  0  0  0  0  0  0  0  0  0  0  0
  -23.7013   25.9569  -35.9028 C   0  0  0  0  0  0  0  0  0  0  0  0
  -23.7195   26.2629  -37.2490 C   0  0  0  0  0  0  0  0  0  0  0  0
  -24.4366   27.4329  -37.3271 C   0  0  0  0  0  0  0  0  0  0  0  0
  -24.8264   27.8000  -36.0656 N   0  0  0  0  0  0  0  0  0  0  0  0
  -25.5914   28.9606  -35.7253 C   0  0  0  0  0  0  0  0  0  0  0  0
  -23.0294   25.3400  -38.2250 C   0  0  0  0  0  0  0  0  0  0  0  0
  -23.1259   23.9508  -37.5919 C   0  0  1  0  0  0  0  0  0  0  0  0
  1  2  1  0
  2  3  1  0
  3  4  1  0
  4  5  1  1
  5  6  1  0
  6  7  1  0
  7  8  2  0
  7  9  1  0
  9 10  1  0
 10 11  1  0
 11 12  2  0
 12 13  1  0
 13 14  2  0
 14 15  1  0
 15 16  2  0
  4 17  1  0
 18 17  1  1
 18 19  1  0
 19 20  2  0
 20 21  1  0
 21 22  2  0
 22 23  1  0
 23 24  2  0
 24 25  1  0
 25 26  2  0
 26 27  1  0
 27 28  1  0
 25 29  1  0
 30 29  1  6
 30  2  1  0
 16 11  1  0
 30 18  1  0
 24 19  1  0
 27 23  1  0
M  END
$$$$
