
     RDKit          3D

 18 18  0  0  0  0  0  0  0  0999 V2000
  -18.4679   39.5006  -22.4481 Cl  0  0  0  0  0  0  0  0  0  0  0  0
  -18.4680   39.4920  -22.4470 Cl  0  0  0  0  0  0  0  0  0  0  0  0
  -18.6739   34.6884  -21.8750 C   0  0  0  0  0  0  0  0  0  0  0  0
  -17.5082   35.4061  -22.0950 C   0  0  0  0  0  0  0  0  0  0  0  0
  -17.5914   36.7740  -22.2884 C   0  0  0  0  0  0  0  0  0  0  0  0
  -18.7908   37.4477  -22.2700 C   0  0  0  0  0  0  0  0  0  0  0  0
  -18.8823   38.8979  -22.4747 C   0  0  2  0  0  0  0  0  0  0  0  0
  -17.8854   39.4491  -23.4928 C   0  0  0  0  0  0  0  0  0  0  0  0
  -17.7789   39.8092  -22.0837 C   0  0  1  0  0  0  0  0  0  0  0  0
  -18.0650   41.0977  -21.5557 N   0  0  0  0  0  0  0  0  0  0  0  0
  -18.6972   41.9602  -22.4984 C   0  0  0  0  0  0  0  0  0  0  0  0
  -19.1303   43.2252  -21.7555 C   0  0  0  0  0  0  0  0  0  0  0  0
  -19.4916   44.3433  -22.7119 C   0  0  0  0  0  0  0  0  0  0  0  0
  -18.3616   44.6824  -23.5626 N   0  0  0  0  0  0  0  0  0  0  0  0
  -17.2592   43.7602  -23.3577 C   0  0  0  0  0  0  0  0  0  0  0  0
  -17.7149   42.3369  -23.6037 C   0  0  0  0  0  0  0  0  0  0  0  0
  -19.9383   36.7222  -22.0506 C   0  0  0  0  0  0  0  0  0  0  0  0
  -19.8944   35.3378  -21.8509 C   0  0  0  0  0  0  0  0  0  0  0  0
  3  4  2  0
  4  5  1  0
  5  6  2  0
  7  6  1  1
  7  8  1  0
  8  9  1  0
  9 10  1  6
 10 11  1  0
 11 12  1  0
 12 13  1  0
 13 14  1  0
 14 15  1  0
 15 16  1  0
  6 17  1  0
 17 18  2  0
 18  3  1  0
  9  7  1  0
 16 11  1  0
M  END
$$$$
