
     RDKit          3D

 29 30  0  0  0  0  0  0  0  0999 V2000
  -40.8318    1.7426  -45.0329 C   0  0  0  0  0  0  0  0  0  0  0  0
  -41.1399    2.6157  -43.9166 N   0  0  0  0  0  0  0  0  0  0  0  0
  -41.0827    2.0632  -42.5911 C   0  0  0  0  0  0  0  0  0  0  0  0
  -41.4795    3.9697  -44.1748 C   0  0  0  0  0  0  0  0  0  0  0  0
  -41.5047    4.3937  -45.3576 O   0  0  0  0  0  0  0  0  0  0  0  0
  -41.8024    4.9061  -43.1623 N   0  0  0  0  0  0  0  0  0  0  0  0
  -42.1480    6.2901  -43.4109 C   0  0  1  0  0  0  0  0  0  0  0  0
  -43.5412    6.5816  -42.9950 C   0  0  0  0  0  0  0  0  0  0  0  0
  -43.7304    7.2687  -41.6856 C   0  0  0  0  0  0  0  0  0  0  0  0
  -42.6062    8.1293  -41.2480 C   0  0  2  0  0  0  0  0  0  0  0  0
  -42.9335    9.3199  -40.4243 C   0  0  0  0  0  0  0  0  0  0  0  0
  -43.8336   10.2991  -41.0835 C   0  0  0  0  0  0  0  0  0  0  0  0
  -44.1436   11.4569  -40.3473 N   0  0  0  0  0  0  0  0  0  0  0  0
  -44.9340   11.3742  -39.1985 C   0  0  0  0  0  0  0  0  0  0  0  0
  -44.5668   12.2865  -38.0477 C   0  0  0  0  0  0  0  0  0  0  0  0
  -44.2484   13.5735  -38.5965 N   0  0  0  0  0  0  0  0  0  0  0  0
  -44.9230   14.7334  -38.1958 C   0  0  0  0  0  0  0  0  0  0  0  0
  -45.6400   15.4823  -39.1297 C   0  0  0  0  0  0  0  0  0  0  0  0
  -46.2859   16.6164  -38.7230 C   0  0  0  0  0  0  0  0  0  0  0  0
  -46.2497   17.0400  -37.4187 C   0  0  0  0  0  0  0  0  0  0  0  0
  -45.5354   16.2867  -36.5059 C   0  0  0  0  0  0  0  0  0  0  0  0
  -45.4699   16.8015  -34.8442 Cl  0  0  0  0  0  0  0  0  0  0  0  0
  -44.8680   15.1374  -36.8669 C   0  0  0  0  0  0  0  0  0  0  0  0
  -43.9581   14.1678  -35.7293 Cl  0  0  0  0  0  0  0  0  0  0  0  0
  -43.1901   13.5874  -39.5855 C   0  0  0  0  0  0  0  0  0  0  0  0
  -43.5179   12.6553  -40.7129 C   0  0  0  0  0  0  0  0  0  0  0  0
  -41.8276    8.5152  -42.5164 C   0  0  0  0  0  0  0  0  0  0  0  0
  -41.1023    7.2406  -42.8970 C   0  0  0  0  0  0  0  0  0  0  0  0
  -43.3383   10.0110  -40.7679 Cl  0  0  0  0  0  0  0  0  0  0  0  0
  1  2  1  0
  2  3  1  0
  2  4  1  0
  4  5  2  0
  4  6  1  0
  7  6  1  1
  7  8  1  0
  8  9  1  0
  9 10  1  0
 10 11  1  6
 11 12  1  0
 12 13  1  0
 13 14  1  0
 14 15  1  0
 15 16  1  0
 16 17  1  0
 17 18  2  0
 18 19  1  0
 19 20  2  0
 20 21  1  0
 21 22  1  0
 21 23  2  0
 23 24  1  0
 16 25  1  0
 25 26  1  0
 10 27  1  0
 27 28  1  0
 28  7  1  0
 26 13  1  0
 23 17  1  0
M  END
$$$$
