
     RDKit          3D

 23 25  0  0  0  0  0  0  0  0999 V2000
  -19.8197   19.4501  -35.1444 C   0  0  0  0  0  0  0  0  0  0  0  0
  -19.5681   18.0009  -34.9409 C   0  0  0  0  0  0  0  0  0  0  0  0
  -19.8615   17.1778  -35.8176 O   0  0  0  0  0  0  0  0  0  0  0  0
  -18.9934   17.5566  -33.7470 N   0  0  0  0  0  0  0  0  0  0  0  0
  -18.5986   16.1943  -33.4630 C   0  0  0  0  0  0  0  0  0  0  0  0
  -19.7494   15.5265  -32.8025 C   0  0  0  0  0  0  0  0  0  0  0  0
  -19.9472   14.1719  -32.9468 C   0  0  0  0  0  0  0  0  0  0  0  0
  -21.0280   13.5301  -32.3339 C   0  0  0  0  0  0  0  0  0  0  0  0
  -21.8994   14.2823  -31.5765 C   0  0  0  0  0  0  0  0  0  0  0  0
  -21.7368   15.6422  -31.4068 C   0  0  0  0  0  0  0  0  0  0  0  0
  -20.6614   16.2232  -32.0286 C   0  0  0  0  0  0  0  0  0  0  0  0
  -17.3347   16.0782  -32.7090 C   0  0  0  0  0  0  0  0  0  0  0  0
  -16.8873   16.9973  -31.7894 C   0  0  0  0  0  0  0  0  0  0  0  0
  -15.6846   16.8365  -31.1085 C   0  0  0  0  0  0  0  0  0  0  0  0
  -15.1266   18.0142  -29.9404 Cl  0  0  0  0  0  0  0  0  0  0  0  0
  -14.8875   15.7345  -31.3348 C   0  0  0  0  0  0  0  0  0  0  0  0
  -13.6824   15.5698  -30.6550 C   0  0  0  0  0  0  0  0  0  0  0  0
  -12.9217   14.4626  -30.9087 C   0  0  0  0  0  0  0  0  0  0  0  0
  -13.3735   13.5458  -31.8296 C   0  0  0  0  0  0  0  0  0  0  0  0
  -14.5393   13.7248  -32.4739 N   0  0  0  0  0  0  0  0  0  0  0  0
  -15.3256   14.8030  -32.2567 C   0  0  0  0  0  0  0  0  0  0  0  0
  -16.5208   14.9768  -32.9238 C   0  0  0  0  0  0  0  0  0  0  0  0
  -16.9344   14.0214  -33.8459 O   0  0  0  0  0  0  0  0  0  0  0  0
  1  2  1  0
  2  3  2  0
  2  4  1  0
  4  5  1  0
  5  6  1  0
  6  7  2  0
  7  8  1  0
  8  9  2  0
  9 10  1  0
 10 11  2  0
  5 12  1  0
 12 13  2  0
 13 14  1  0
 14 15  1  0
 14 16  2  0
 16 17  1  0
 17 18  2  0
 18 19  1  0
 19 20  2  0
 20 21  1  0
 21 22  2  0
 22 23  1  0
 11  6  1  0
 22 12  1  0
 21 16  1  0
M  END
$$$$
