
     RDKit          3D

 42 45  0  0  0  0  0  0  0  0999 V2000
  -18.1351   46.1931  -27.2164 C   0  0  0  0  0  0  0  0  0  0  0  0
  -18.4035   45.0906  -26.2118 C   0  0  0  0  0  0  0  0  0  0  0  0
  -17.0826   44.5359  -25.7650 C   0  0  0  0  0  0  0  0  0  0  0  0
  -19.2006   45.6844  -25.0742 C   0  0  0  0  0  0  0  0  0  0  0  0
  -19.5522   44.6428  -24.0345 C   0  0  2  0  0  0  0  0  0  0  0  0
  -20.6832   45.1954  -23.2851 N   0  0  0  0  0  0  0  0  0  0  0  0
  -21.8225   44.4338  -22.9525 C   0  0  0  0  0  0  0  0  0  0  0  0
  -21.9698   43.2572  -23.3416 O   0  0  0  0  0  0  0  0  0  0  0  0
  -22.8406   45.0352  -22.1414 C   0  0  0  0  0  0  0  0  0  0  0  0
  -23.0270   46.2943  -21.6777 C   0  0  0  0  0  0  0  0  0  0  0  0
  -24.1018   46.5711  -20.9196 C   0  0  0  0  0  0  0  0  0  0  0  0
  -24.4394   47.8274  -20.3607 C   0  0  0  0  0  0  0  0  0  0  0  0
  -25.5545   47.9944  -19.6072 C   0  0  0  0  0  0  0  0  0  0  0  0
  -26.4237   46.9853  -19.3325 C   0  0  0  0  0  0  0  0  0  0  0  0
  -26.1272   45.7463  -19.8605 C   0  0  0  0  0  0  0  0  0  0  0  0
  -24.9836   45.5816  -20.6314 C   0  0  0  0  0  0  0  0  0  0  0  0
  -24.2755   44.1672  -21.4689 S   0  0  0  0  0  0  0  0  0  0  0  0
  -18.4641   44.3920  -23.0740 C   0  0  0  0  0  0  0  0  0  0  0  0
  -17.8554   45.3414  -22.5017 O   0  0  0  0  0  0  0  0  0  0  0  0
  -18.0588   43.0680  -22.7539 N   0  0  0  0  0  0  0  0  0  0  0  0
  -18.5657   41.9721  -23.5578 C   0  0  0  0  0  0  0  0  0  0  0  0
  -17.4864   40.9979  -23.8816 C   0  0  0  0  0  0  0  0  0  0  0  0
  -16.7449   40.6756  -22.6744 N   0  0  0  0  0  0  0  0  0  0  0  0
  -16.6506   39.4118  -22.0806 C   0  0  0  0  0  0  0  0  0  0  0  0
  -15.4873   38.8818  -22.0365 O   0  0  0  0  0  0  0  0  0  0  0  0
  -17.7659   38.6601  -21.5148 C   0  0  2  0  0  0  0  0  0  0  0  0
  -17.6783   38.5640  -19.9868 C   0  0  0  0  0  0  0  0  0  0  0  0
  -17.6873   39.8204  -19.4089 O   0  0  0  0  0  0  0  0  0  0  0  0
  -17.7086   37.2540  -21.9483 N   0  0  0  0  0  0  0  0  0  0  0  0
  -19.2606   36.7271  -22.4860 S   0  0  0  0  0  6  0  0  0  0  0  0
  -20.2918   36.8701  -21.3888 O   0  0  0  0  0  0  0  0  0  0  0  0
  -19.2429   35.2738  -22.8597 O   0  0  0  0  0  0  0  0  0  0  0  0
  -19.7856   37.5983  -23.9260 C   0  0  0  0  0  0  0  0  0  0  0  0
  -20.1318   36.9456  -25.0797 C   0  0  0  0  0  0  0  0  0  0  0  0
  -20.5392   37.6525  -26.1779 C   0  0  0  0  0  0  0  0  0  0  0  0
  -20.6012   39.0414  -26.1195 C   0  0  0  0  0  0  0  0  0  0  0  0
  -21.1235   39.9316  -27.5304 Cl  0  0  0  0  0  0  0  0  0  0  0  0
  -20.2514   39.6891  -24.9561 C   0  0  0  0  0  0  0  0  0  0  0  0
  -19.8415   38.9673  -23.8532 C   0  0  0  0  0  0  0  0  0  0  0  0
  -19.4142   39.8664  -22.4295 Cl  0  0  0  0  0  0  0  0  0  0  0  0
  -16.0659   41.8457  -22.0942 C   0  0  0  0  0  0  0  0  0  0  0  0
  -17.1513   42.8432  -21.6726 C   0  0  0  0  0  0  0  0  0  0  0  0
  1  2  1  0
  2  3  1  0
  2  4  1  0
  5  4  1  6
  5  6  1  0
  6  7  1  0
  7  8  2  0
  7  9  1  0
  9 10  2  0
 10 11  1  0
 11 12  2  0
 12 13  1  0
 13 14  2  0
 14 15  1  0
 15 16  2  0
 16 17  1  0
  5 18  1  0
 18 19  2  0
 18 20  1  0
 20 21  1  0
 21 22  1  0
 22 23  1  0
 23 24  1  0
 24 25  2  0
 24 26  1  0
 26 27  1  1
 27 28  1  0
 26 29  1  0
 29 30  1  0
 30 31  2  0
 30 32  2  0
 30 33  1  0
 33 34  2  0
 34 35  1  0
 35 36  2  0
 36 37  1  0
 36 38  1  0
 38 39  2  0
 39 40  1  0
 23 41  1  0
 41 42  1  0
 17  9  1  0
 42 20  1  0
 16 11  1  0
 39 33  1  0
M  END
$$$$
