
     RDKit          3D

 33 37  0  0  0  0  0  0  0  0999 V2000
  -29.3895   12.4748  -23.8233 C   0  0  0  0  0  0  0  0  0  0  0  0
  -29.2054   13.9261  -24.0728 C   0  0  0  0  0  0  0  0  0  0  0  0
  -27.9701   14.4933  -23.9043 C   0  0  0  0  0  0  0  0  0  0  0  0
  -27.7767   15.8646  -24.1349 C   0  0  0  0  0  0  0  0  0  0  0  0
  -26.5405   16.3969  -23.9394 F   0  0  0  0  0  0  0  0  0  0  0  0
  -28.8521   16.6005  -24.5286 C   0  0  0  0  0  0  0  0  0  0  0  0
  -28.7470   18.0443  -24.8225 C   0  0  0  0  0  0  0  0  0  0  0  0
  -29.3653   18.8158  -24.0044 O   0  0  0  0  0  0  0  0  0  0  0  0
  -28.0561   18.6243  -25.8822 N   0  0  0  0  0  0  0  0  0  0  0  0
  -28.4305   19.8153  -26.5918 C   0  0  0  0  0  0  0  0  0  0  0  0
  -29.3488   20.7244  -26.1872 C   0  0  0  0  0  0  0  0  0  0  0  0
  -29.6690   21.8686  -26.9327 C   0  0  0  0  0  0  0  0  0  0  0  0
  -28.9973   22.0365  -28.1211 C   0  0  0  0  0  0  0  0  0  0  0  0
  -28.0572   21.1253  -28.5561 C   0  0  0  0  0  0  0  0  0  0  0  0
  -27.3950   21.3842  -29.8234 C   0  0  0  0  0  0  0  0  0  0  0  0
  -26.0729   21.7063  -29.9529 N   0  0  0  0  0  0  0  0  0  0  0  0
  -25.8739   21.8580  -31.2368 N   0  0  0  0  0  0  0  0  0  0  0  0
  -27.0011   21.6484  -31.9231 C   0  0  0  0  0  0  0  0  0  0  0  0
  -27.9739   21.3453  -31.0169 N   0  0  0  0  0  0  0  0  0  0  0  0
  -29.3384   21.0505  -31.3250 C   0  0  0  0  0  0  0  0  0  0  0  0
  -30.1325   20.5078  -30.1525 C   0  0  0  0  0  0  0  0  0  0  0  0
  -30.0637   22.2006  -31.9707 C   0  0  0  0  0  0  0  0  0  0  0  0
  -27.8174   20.0696  -27.7846 N   0  0  0  0  0  0  0  0  0  0  0  0
  -30.1074   15.9919  -24.6932 C   0  0  0  0  0  0  0  0  0  0  0  0
  -30.3087   14.6531  -24.4705 C   0  0  0  0  0  0  0  0  0  0  0  0
  -31.5734   14.0236  -24.6339 N   0  0  0  0  0  0  0  0  0  0  0  0
  -31.8719   13.1475  -25.6051 C   0  0  0  0  0  0  0  0  0  0  0  0
  -33.1681   12.7555  -25.4484 N   0  0  0  0  0  0  0  0  0  0  0  0
  -33.7003   13.3828  -24.3737 C   0  0  0  0  0  0  0  0  0  0  0  0
  -35.0826   13.2475  -23.8451 C   0  0  0  0  0  0  0  0  0  0  0  0
  -36.0643   14.4000  -24.2190 C   0  0  0  0  0  0  0  0  0  0  0  0
  -36.2156   12.9849  -24.7407 C   0  0  0  0  0  0  0  0  0  0  0  0
  -32.6811   14.1690  -23.8844 C   0  0  0  0  0  0  0  0  0  0  0  0
  1  2  1  0
  2  3  2  0
  3  4  1  0
  4  5  1  0
  4  6  2  0
  6  7  1  0
  7  8  2  0
  7  9  1  0
  9 10  1  0
 10 11  2  0
 11 12  1  0
 12 13  2  0
 13 14  1  0
 14 15  1  0
 15 16  2  0
 16 17  1  0
 17 18  2  0
 18 19  1  0
 19 20  1  0
 20 21  1  0
 20 22  1  0
 14 23  2  0
  6 24  1  0
 24 25  2  0
 25 26  1  0
 26 27  1  0
 27 28  2  0
 28 29  1  0
 29 30  1  0
 30 31  1  0
 31 32  1  0
 29 33  2  0
 25  2  1  0
 33 26  1  0
 23 10  1  0
 32 30  1  0
 19 15  1  0
M  END
$$$$
