
     RDKit          3D

 29 32  0  0  0  0  0  0  0  0999 V2000
  -22.8213   16.0851  -32.4190 C   0  0  0  0  0  0  0  0  0  0  0  0
  -21.3889   16.3429  -32.5559 N   0  0  0  0  0  0  0  0  0  0  0  0
  -20.7049   16.1854  -33.7780 C   0  0  0  0  0  0  0  0  0  0  0  0
  -21.3489   15.9904  -34.8454 O   0  0  0  0  0  0  0  0  0  0  0  0
  -19.2483   16.2525  -33.7791 C   0  0  0  0  0  0  0  0  0  0  0  0
  -18.5577   16.8320  -32.7326 C   0  0  0  0  0  0  0  0  0  0  0  0
  -17.1875   16.8711  -32.7814 C   0  0  0  0  0  0  0  0  0  0  0  0
  -16.4437   17.5114  -31.6344 C   0  0  0  0  0  0  0  0  0  0  0  0
  -16.0181   16.6365  -30.7969 O   0  0  0  0  0  0  0  0  0  0  0  0
  -15.5723   15.7611  -29.9467 C   0  0  0  0  0  0  0  0  0  0  0  0
  -14.6274   14.8284  -30.3050 N   0  0  0  0  0  0  0  0  0  0  0  0
  -14.1483   13.9263  -29.4835 N   0  0  0  0  0  0  0  0  0  0  0  0
  -14.5342   13.8219  -28.2027 C   0  0  0  0  0  0  0  0  0  0  0  0
  -14.0103   12.8383  -27.3241 N   0  0  0  0  0  0  0  0  0  0  0  0
  -12.8771   12.0576  -27.6096 C   0  0  0  0  0  0  0  0  0  0  0  0
  -11.9294   11.7914  -26.6420 C   0  0  0  0  0  0  0  0  0  0  0  0
  -10.8005   11.0139  -26.9238 C   0  0  0  0  0  0  0  0  0  0  0  0
  -10.6131   10.4900  -28.2003 C   0  0  0  0  0  0  0  0  0  0  0  0
   -9.1887    9.5169  -28.5319 Cl  0  0  0  0  0  0  0  0  0  0  0  0
  -11.5626   10.7624  -29.1516 C   0  0  0  0  0  0  0  0  0  0  0  0
  -12.6923   11.5397  -28.8719 C   0  0  0  0  0  0  0  0  0  0  0  0
  -15.4805   14.7187  -27.7565 C   0  0  0  0  0  0  0  0  0  0  0  0
  -16.1002   14.9047  -26.5271 C   0  0  0  0  0  0  0  0  0  0  0  0
  -16.9605   15.9683  -26.7021 C   0  0  0  0  0  0  0  0  0  0  0  0
  -16.8613   16.3931  -27.9618 O   0  0  0  0  0  0  0  0  0  0  0  0
  -15.9898   15.6666  -28.6042 C   0  0  0  0  0  0  0  0  0  0  0  0
  -16.4677   16.3511  -33.8414 C   0  0  0  0  0  0  0  0  0  0  0  0
  -17.2122   15.7780  -34.8707 C   0  0  0  0  0  0  0  0  0  0  0  0
  -18.5490   15.7516  -34.8000 N   0  0  0  0  0  0  0  0  0  0  0  0
  1  2  1  0
  2  3  1  0
  3  4  2  0
  3  5  1  0
  5  6  2  0
  6  7  1  0
  7  8  1  0
  8  9  1  0
  9 10  1  0
 10 11  2  0
 11 12  1  0
 12 13  2  0
 13 14  1  0
 14 15  1  0
 15 16  2  0
 16 17  1  0
 17 18  2  0
 18 19  1  0
 18 20  1  0
 20 21  2  0
 13 22  1  0
 22 23  1  0
 23 24  2  0
 24 25  1  0
 25 26  1  0
  7 27  2  0
 27 28  1  0
 28 29  2  0
 29  5  1  0
 26 10  1  0
 21 15  1  0
 26 22  2  0
M  END
$$$$
