
     RDKit          3D

 23 25  0  0  0  0  0  0  0  0999 V2000
  -18.0475   39.1511  -24.3485 C   0  0  0  0  0  0  0  0  0  0  0  0
  -18.9762   38.2549  -23.5963 C   0  0  0  0  0  0  0  0  0  0  0  0
  -20.0204   37.5558  -24.1296 N   0  0  0  0  0  0  0  0  0  0  0  0
  -20.6277   36.8494  -23.1827 C   0  0  0  0  0  0  0  0  0  0  0  0
  -19.9740   37.0884  -22.0144 C   0  0  0  0  0  0  0  0  0  0  0  0
  -18.9605   37.9575  -22.2936 N   0  0  0  0  0  0  0  0  0  0  0  0
  -18.0292   38.4850  -21.3391 C   0  0  0  0  0  0  0  0  0  0  0  0
  -18.4987   39.7301  -20.6231 C   0  0  0  0  0  0  0  0  0  0  0  0
  -17.4681   40.2073  -19.6635 C   0  0  0  0  0  0  0  0  0  0  0  0
  -17.1106   41.6325  -19.6798 C   0  0  0  0  0  0  0  0  0  0  0  0
  -17.2935   42.3699  -20.9264 C   0  0  0  0  0  0  0  0  0  0  0  0
  -18.2083   41.9053  -21.8455 C   0  0  0  0  0  0  0  0  0  0  0  0
  -18.1592   42.8089  -22.9031 C   0  0  0  0  0  0  0  0  0  0  0  0
  -18.8552   42.8385  -24.0806 C   0  0  0  0  0  0  0  0  0  0  0  0
  -18.6064   43.8705  -24.9687 C   0  0  0  0  0  0  0  0  0  0  0  0
  -17.6701   44.8481  -24.6622 C   0  0  0  0  0  0  0  0  0  0  0  0
  -16.9740   44.7953  -23.4550 C   0  0  0  0  0  0  0  0  0  0  0  0
  -17.2251   43.7583  -22.5644 C   0  0  0  0  0  0  0  0  0  0  0  0
  -16.7036   43.4830  -21.3598 N   0  0  0  0  0  0  0  0  0  0  0  0
  -15.6747   44.2903  -20.6858 C   0  0  0  0  0  0  0  0  0  0  0  0
  -18.9793   40.6963  -21.5919 C   0  0  0  0  0  0  0  0  0  0  0  0
  -20.0539   40.4886  -22.2055 O   0  0  0  0  0  0  0  0  0  0  0  0
  -18.1158   40.4105  -22.3233 Cl  0  0  0  0  0  0  0  0  0  0  0  0
  1  2  1  0
  2  3  2  0
  3  4  1  0
  4  5  2  0
  5  6  1  0
  6  7  1  0
  7  8  1  0
  8  9  1  0
  9 10  1  0
 10 11  1  0
 11 12  2  0
 12 13  1  0
 13 14  2  0
 14 15  1  0
 15 16  2  0
 16 17  1  0
 17 18  2  0
 18 19  1  0
 19 20  1  0
 12 21  1  0
 21 22  2  0
  6  2  1  0
 21  8  1  0
 19 11  1  0
 18 13  1  0
M  END
$$$$
