
     RDKit          3D

 16 17  0  0  0  0  0  0  0  0999 V2000
  -39.5220   47.3688  -25.1611 Cl  0  0  0  0  0  0  0  0  0  0  0  0
  -38.4898   46.3731  -27.2680 N   0  0  0  0  0  0  0  0  0  0  0  0
  -39.2468   46.8994  -26.1742 C   0  0  0  0  0  0  0  0  0  0  0  0
  -40.5803   46.7083  -26.0059 C   0  0  0  0  0  0  0  0  0  0  0  0
  -41.2385   47.2387  -24.9405 C   0  0  0  0  0  0  0  0  0  0  0  0
  -40.5989   47.9594  -24.0322 N   0  0  0  0  0  0  0  0  0  0  0  0
  -39.2851   48.1812  -24.1455 C   0  0  0  0  0  0  0  0  0  0  0  0
  -38.6222   48.9457  -23.1766 C   0  0  0  0  0  0  0  0  0  0  0  0
  -37.2719   49.1879  -23.2706 C   0  0  0  0  0  0  0  0  0  0  0  0
  -36.5944   48.6595  -24.3396 C   0  0  0  0  0  0  0  0  0  0  0  0
  -37.2272   47.9046  -25.3040 C   0  0  0  0  0  0  0  0  0  0  0  0
  -38.5831   47.6604  -25.2112 C   0  0  0  0  0  0  0  0  0  0  0  0
  -42.7237   46.9706  -24.8413 C   0  0  0  0  0  0  0  0  0  0  0  0
  -42.8725   45.4761  -25.0644 C   0  0  0  0  0  0  0  0  0  0  0  0
  -42.3964   45.0398  -26.4008 C   0  0  0  0  0  0  0  0  0  0  0  0
  -41.3305   45.9064  -27.0044 C   0  0  0  0  0  0  0  0  0  0  0  0
  2  3  1  0
  3  4  2  0
  4  5  1  0
  5  6  2  0
  6  7  1  0
  7  8  2  0
  8  9  1  0
  9 10  2  0
 10 11  1  0
 11 12  2  0
  5 13  1  0
 13 14  1  0
 14 15  1  0
 15 16  1  0
 12  3  1  0
 16  4  1  0
 12  7  1  0
M  END
$$$$
