
     RDKit          3D

 28 31  0  0  0  0  0  0  0  0999 V2000
  -14.9253   19.8407  -37.6389 O   0  0  0  0  0  0  0  0  0  0  0  0
  -14.9221   18.6620  -36.9080 C   0  0  0  0  0  0  0  0  0  0  0  0
  -16.1675   18.5625  -36.0569 C   0  0  1  0  0  0  0  0  0  0  0  0
  -17.2955   18.3495  -36.8367 O   0  0  0  0  0  0  0  0  0  0  0  0
  -18.3499   17.8330  -36.0833 C   0  0  1  0  0  0  0  0  0  0  0  0
  -19.6110   17.9971  -36.8500 C   0  0  0  0  0  0  0  0  0  0  0  0
  -20.7994   17.9218  -36.1564 C   0  0  0  0  0  0  0  0  0  0  0  0
  -21.9809   18.0743  -36.8538 C   0  0  0  0  0  0  0  0  0  0  0  0
  -21.9557   18.2974  -38.2223 C   0  0  0  0  0  0  0  0  0  0  0  0
  -23.1387   18.4465  -38.9011 F   0  0  0  0  0  0  0  0  0  0  0  0
  -20.7806   18.3764  -38.9367 C   0  0  0  0  0  0  0  0  0  0  0  0
  -20.7873   18.6148  -40.4019 C   0  0  0  0  0  0  0  0  0  0  0  0
  -20.9504   20.0297  -40.7606 C   0  0  0  0  0  0  0  0  0  0  0  0
  -21.9495   20.6974  -41.3798 C   0  0  0  0  0  0  0  0  0  0  0  0
  -21.8180   22.0244  -41.5769 C   0  0  0  0  0  0  0  0  0  0  0  0
  -22.7462   22.8896  -42.1988 C   0  0  0  0  0  0  0  0  0  0  0  0
  -22.5087   24.2287  -42.3453 C   0  0  0  0  0  0  0  0  0  0  0  0
  -21.3570   24.8121  -41.8981 C   0  0  0  0  0  0  0  0  0  0  0  0
  -20.4242   24.0024  -41.2849 C   0  0  0  0  0  0  0  0  0  0  0  0
  -20.6914   22.6438  -41.1490 C   0  0  0  0  0  0  0  0  0  0  0  0
  -19.7666   21.2759  -40.4285 S   0  0  0  0  0  0  0  0  0  0  0  0
  -19.5965   18.2202  -38.2157 C   0  0  0  0  0  0  0  0  0  0  0  0
  -18.0217   16.3887  -35.8347 C   0  0  2  0  0  0  0  0  0  0  0  0
  -19.0669   15.6887  -35.2280 O   0  0  0  0  0  0  0  0  0  0  0  0
  -16.7578   16.3346  -35.0140 C   0  0  1  0  0  0  0  0  0  0  0  0
  -15.9199   15.3093  -35.4639 O   0  0  0  0  0  0  0  0  0  0  0  0
  -16.0398   17.6333  -34.9049 C   0  0  2  0  0  0  0  0  0  0  0  0
  -16.2978   18.2781  -33.6709 O   0  0  0  0  0  0  0  0  0  0  0  0
  1  2  1  0
  3  2  1  6
  3  4  1  0
  4  5  1  0
  5  6  1  6
  6  7  2  0
  7  8  1  0
  8  9  2  0
  9 10  1  0
  9 11  1  0
 11 12  1  0
 12 13  1  0
 13 14  2  0
 14 15  1  0
 15 16  2  0
 16 17  1  0
 17 18  2  0
 18 19  1  0
 19 20  2  0
 20 21  1  0
 11 22  2  0
  5 23  1  0
 23 24  1  1
 23 25  1  0
 25 26  1  6
 25 27  1  0
 27 28  1  1
 27  3  1  0
 22  6  1  0
 21 13  1  0
 20 15  1  0
M  END
$$$$
