
     RDKit          3D

 24 26  0  0  0  0  0  0  0  0999 V2000
  -18.2092   43.0741  -20.4399 C   0  0  0  0  0  0  0  0  0  0  0  0
  -18.1937   43.1051  -21.8833 N   0  0  0  0  0  4  0  0  0  0  0  0
  -18.0942   44.4747  -22.3075 C   0  0  0  0  0  0  0  0  0  0  0  0
  -17.1569   42.2594  -22.4395 C   0  0  1  0  0  0  0  0  0  0  0  0
  -17.1826   40.9564  -21.7005 C   0  0  0  0  0  0  0  0  0  0  0  0
  -18.5132   40.2814  -21.6896 C   0  0  2  0  0  0  0  0  0  0  0  0
  -18.4318   39.1626  -22.5721 O   0  0  0  0  0  0  0  0  0  0  0  0
  -18.5170   37.8530  -22.1300 C   0  0  0  0  0  0  0  0  0  0  0  0
  -18.6724   37.6694  -20.8952 O   0  0  0  0  0  0  0  0  0  0  0  0
  -18.4256   36.7047  -23.0998 C   0  0  2  0  0  0  0  0  0  0  0  0
  -19.5980   36.8820  -24.0557 C   0  0  0  0  0  0  0  0  0  0  0  0
  -19.6457   35.8952  -25.0097 O   0  0  0  0  0  0  0  0  0  0  0  0
  -18.5495   35.4556  -22.3286 C   0  0  0  0  0  0  0  0  0  0  0  0
  -17.5131   34.5581  -22.2903 C   0  0  0  0  0  0  0  0  0  0  0  0
  -17.6527   33.3787  -21.5518 C   0  0  0  0  0  0  0  0  0  0  0  0
  -18.8036   33.1183  -20.8754 C   0  0  0  0  0  0  0  0  0  0  0  0
  -19.8557   34.0295  -20.9143 C   0  0  0  0  0  0  0  0  0  0  0  0
  -19.7185   35.1972  -21.6451 C   0  0  0  0  0  0  0  0  0  0  0  0
  -19.6776   41.1437  -21.9744 C   0  0  0  0  0  0  0  0  0  0  0  0
  -19.3778   42.5144  -22.4553 C   0  0  2  0  0  0  0  0  0  0  0  0
  -19.0400   42.4463  -23.9274 C   0  0  1  0  0  0  0  0  0  0  0  0
  -18.0759   43.2718  -24.4593 O   0  0  0  0  0  0  0  0  0  0  0  0
  -17.5579   42.1167  -23.8818 C   0  0  1  0  0  0  0  0  0  0  0  0
  -18.5824   39.3333  -22.2560 Br  0  0  0  0  0 15  0  0  0  0  0  0
  1  2  1  0
  2  3  1  0
  2  4  1  0
  4  5  1  1
  5  6  1  0
  6  7  1  6
  7  8  1  0
  8  9  2  0
  8 10  1  0
 10 11  1  6
 11 12  1  0
 10 13  1  0
 13 14  2  0
 14 15  1  0
 15 16  2  0
 16 17  1  0
 17 18  2  0
  6 19  1  0
 20 19  1  1
 20 21  1  0
 21 22  1  1
 23 22  1  6
 20  2  1  0
 23 21  1  0
 23  4  1  0
 18 13  1  0
M  CHG  2   2   1  24  -1
M  END
$$$$
