
     RDKit          3D

 11 12  0  0  0  0  0  0  0  0999 V2000
  -16.7708   38.0751  -22.0813 C   0  0  0  0  0  0  0  0  0  0  0  0
  -17.6776   39.1151  -22.0750 C   0  0  0  0  0  0  0  0  0  0  0  0
  -18.9809   38.7930  -22.1563 N   0  0  0  0  0  0  0  0  0  0  0  0
  -19.4216   37.5209  -22.2417 C   0  0  0  0  0  0  0  0  0  0  0  0
  -18.5469   36.4541  -22.2510 C   0  0  0  0  0  0  0  0  0  0  0  0
  -19.0474   35.0908  -22.3439 C   0  0  0  0  0  0  0  0  0  0  0  0
  -18.2691   33.9544  -22.4246 C   0  0  0  0  0  0  0  0  0  0  0  0
  -19.0953   32.8685  -22.4975 N   0  0  0  0  0  0  0  0  0  0  0  0
  -20.3415   33.3347  -22.4619 N   0  0  0  0  0  0  0  0  0  0  0  0
  -20.3177   34.6537  -22.3707 N   0  0  0  0  0  0  0  0  0  0  0  0
  -17.2034   36.7507  -22.1689 C   0  0  0  0  0  0  0  0  0  0  0  0
  1  2  2  0
  2  3  1  0
  3  4  2  0
  4  5  1  0
  5  6  1  0
  6  7  2  0
  7  8  1  0
  8  9  2  0
  9 10  1  0
  5 11  2  0
 11  1  1  0
 10  6  1  0
M  END
$$$$
