
     RDKit          3D

 31 32  0  0  0  0  0  0  0  0999 V2000
  -18.2838   38.9700  -17.5168 C   0  0  0  0  0  0  0  0  0  0  0  0
  -18.0356   39.7120  -18.6651 O   0  0  0  0  0  0  0  0  0  0  0  0
  -17.9594   41.0431  -18.7493 N   0  0  0  0  0  0  0  0  0  0  0  0
  -17.9698   41.7188  -19.8389 C   0  0  0  0  0  0  0  0  0  0  0  0
  -18.0671   41.0966  -21.1250 C   0  0  0  0  0  0  0  0  0  0  0  0
  -18.0440   41.8407  -22.1595 O   0  0  0  0  0  0  0  0  0  0  0  0
  -18.1928   39.6932  -21.3492 N   0  0  0  0  0  0  0  0  0  0  0  0
  -18.2781   39.2264  -22.7276 C   0  0  2  0  0  0  0  0  0  0  0  0
  -19.4335   38.3630  -23.0325 C   0  0  0  0  0  0  0  0  0  0  0  0
  -20.6382   38.5947  -23.2695 O   0  0  0  0  0  0  0  0  0  0  0  0
  -18.5747   37.2444  -22.9303 N   0  0  0  0  0  0  0  0  0  0  0  0
  -18.5336   35.7959  -22.7646 C   0  0  0  0  0  0  0  0  0  0  0  0
  -19.2566   35.0442  -23.7542 C   0  0  0  0  0  0  0  0  0  0  0  0
  -19.3084   33.8361  -23.8546 O   0  0  0  0  0  0  0  0  0  0  0  0
  -20.0080   35.7268  -24.7368 O   0  0  0  0  0  1  0  0  0  0  0  0
  -17.8601   35.2578  -21.7721 C   0  0  0  0  0  0  0  0  0  0  0  0
  -17.6534   33.9068  -21.3611 C   0  0  0  0  0  0  0  0  0  0  0  0
  -18.1405   32.7395  -21.8695 O   0  0  0  0  0  0  0  0  0  0  0  0
  -19.4513   32.2651  -21.6529 C   0  0  0  0  0  0  0  0  0  0  0  0
  -19.9684   31.0000  -22.2097 C   0  0  0  0  0  0  0  0  0  0  0  0
  -20.1834   33.0144  -20.9277 O   0  0  0  0  0  0  0  0  0  0  0  0
  -17.2035   36.2767  -20.8063 C   0  0  0  0  0  0  0  0  0  0  0  0
  -16.2679   37.5110  -21.7389 S   0  0  0  0  0  0  0  0  0  0  0  0
  -17.3794   38.0560  -23.0425 C   0  0  2  0  0  0  0  0  0  0  0  0
  -17.8937   43.2276  -19.7184 C   0  0  0  0  0  0  0  0  0  0  0  0
  -17.9115   44.0137  -20.8617 C   0  0  0  0  0  0  0  0  0  0  0  0
  -17.8133   45.6756  -20.0267 S   0  0  0  0  0  0  0  0  0  0  0  0
  -17.7641   45.0694  -18.3539 C   0  0  0  0  0  0  0  0  0  0  0  0
  -17.6846   45.8642  -17.1515 N   0  0  0  0  0  0  0  0  0  0  0  0
  -17.8229   43.7625  -18.5593 N   0  0  0  0  0  0  0  0  0  0  0  0
  -18.3123   38.2014  -20.8821 Na  0  0  0  0  0 15  0  0  0  0  0  0
  1  2  1  0
  2  3  1  0
  3  4  2  0
  4  5  1  0
  5  6  2  0
  5  7  1  0
  8  7  1  1
  8  9  1  0
  9 10  2  0
  9 11  1  0
 11 12  1  0
 12 13  1  0
 13 14  2  0
 13 15  1  0
 12 16  2  0
 16 17  1  0
 17 18  1  0
 18 19  1  0
 19 20  1  0
 19 21  2  0
 16 22  1  0
 22 23  1  0
 24 23  1  1
  4 25  1  0
 25 26  2  0
 26 27  1  0
 27 28  1  0
 28 29  1  0
 28 30  2  0
 24  8  1  0
 30 25  1  0
 24 11  1  0
M  CHG  2  15  -1  31   1
M  END
$$$$
