
     RDKit          3D

 17 18  0  0  0  0  0  0  0  0999 V2000
  -16.8871   17.3596  -32.5811 O   0  0  0  0  0  0  0  0  0  0  0  0
  -17.8810   16.4208  -32.4871 C   0  0  0  0  0  0  0  0  0  0  0  0
  -19.1198   16.7409  -33.0359 C   0  0  0  0  0  0  0  0  0  0  0  0
  -20.1694   15.8813  -32.9958 C   0  0  0  0  0  0  0  0  0  0  0  0
  -21.7432   16.2162  -33.6600 Cl  0  0  0  0  0  0  0  0  0  0  0  0
  -19.9963   14.6605  -32.3935 C   0  0  0  0  0  0  0  0  0  0  0  0
  -18.8035   14.3163  -31.8486 C   0  0  0  0  0  0  0  0  0  0  0  0
  -17.6678   15.2127  -31.8772 C   0  0  0  0  0  0  0  0  0  0  0  0
  -16.5809   14.8043  -31.3388 O   0  0  0  0  0  0  0  0  0  0  0  0
  -15.4860   14.3929  -30.7964 C   0  0  0  0  0  0  0  0  0  0  0  0
  -14.3494   14.2253  -31.6580 C   0  0  0  0  0  0  0  0  0  0  0  0
  -13.1490   13.8005  -31.2080 C   0  0  0  0  0  0  0  0  0  0  0  0
  -12.9877   13.5105  -29.8702 C   0  0  0  0  0  0  0  0  0  0  0  0
  -11.4329   12.9594  -29.2848 Cl  0  0  0  0  0  0  0  0  0  0  0  0
  -14.0532   13.6609  -29.0265 C   0  0  0  0  0  0  0  0  0  0  0  0
  -15.2711   14.0904  -29.4757 C   0  0  0  0  0  0  0  0  0  0  0  0
  -16.5572   14.2346  -28.2509 Cl  0  0  0  0  0  0  0  0  0  0  0  0
  1  2  1  0
  2  3  2  0
  3  4  1  0
  4  5  1  0
  4  6  2  0
  6  7  1  0
  7  8  2  0
  8  9  1  0
  9 10  1  0
 10 11  2  0
 11 12  1  0
 12 13  2  0
 13 14  1  0
 13 15  1  0
 15 16  2  0
 16 17  1  0
  8  2  1  0
 16 10  1  0
M  END
$$$$
