
     RDKit          3D

 26 28  0  0  0  0  0  0  0  0999 V2000
  -18.8178   32.2234  -20.9959 C   0  0  0  0  0  0  0  0  0  0  0  0
  -18.6845   33.6451  -21.4273 C   0  0  0  0  0  0  0  0  0  0  0  0
  -19.6566   34.4085  -22.0411 C   0  0  0  0  0  0  0  0  0  0  0  0
  -19.1186   35.6716  -22.2708 C   0  0  0  0  0  0  0  0  0  0  0  0
  -19.7738   36.8138  -22.8965 C   0  0  0  0  0  0  0  0  0  0  0  0
  -19.1583   37.8884  -23.0078 O   0  0  0  0  0  0  0  0  0  0  0  0
  -21.1526   36.7013  -23.3941 C   0  0  0  0  0  0  0  0  0  0  0  0
  -21.5932   37.8775  -24.0043 O   0  0  0  0  0  0  0  0  0  0  0  0
  -21.7391   38.0065  -25.3906 C   0  0  0  0  0  0  0  0  0  0  0  0
  -22.3030   37.0372  -25.9651 O   0  0  0  0  0  0  0  0  0  0  0  0
  -21.2747   39.1715  -26.1131 C   0  0  0  0  0  0  0  0  0  0  0  0
  -20.3198   39.9797  -25.5504 C   0  0  0  0  0  0  0  0  0  0  0  0
  -19.8456   41.1062  -26.2065 C   0  0  0  0  0  0  0  0  0  0  0  0
  -20.3475   41.4164  -27.4504 C   0  0  0  0  0  0  0  0  0  0  0  0
  -21.3019   40.6292  -28.0392 C   0  0  0  0  0  0  0  0  0  0  0  0
  -21.7620   39.4974  -27.3527 C   0  0  0  0  0  0  0  0  0  0  0  0
  -22.7221   38.7366  -27.9851 O   0  0  0  0  0  0  0  0  0  0  0  0
  -17.8295   35.6052  -21.7763 C   0  0  0  0  0  0  0  0  0  0  0  0
  -16.8659   36.7620  -21.8141 C   0  0  0  0  0  0  0  0  0  0  0  0
  -17.5693   34.3884  -21.2700 N   0  0  0  0  0  0  0  0  0  0  0  0
  -16.3393   33.9441  -20.6695 C   0  0  0  0  0  0  0  0  0  0  0  0
  -15.4128   33.3436  -21.6590 C   0  0  0  0  0  0  0  0  0  0  0  0
  -14.8207   33.8728  -22.7806 C   0  0  0  0  0  0  0  0  0  0  0  0
  -14.0219   33.1167  -23.5056 C   0  0  0  0  0  0  0  0  0  0  0  0
  -13.7550   31.8216  -23.1888 C   0  0  0  0  0  0  0  0  0  0  0  0
  -14.7848   31.6663  -21.6482 S   0  0  0  0  0  0  0  0  0  0  0  0
  1  2  1  0
  2  3  2  0
  3  4  1  0
  4  5  1  0
  5  6  2  0
  5  7  1  0
  7  8  1  0
  8  9  1  0
  9 10  2  0
  9 11  1  0
 11 12  2  0
 12 13  1  0
 13 14  2  0
 14 15  1  0
 15 16  2  0
 16 17  1  0
  4 18  2  0
 18 19  1  0
 18 20  1  0
 20 21  1  0
 21 22  1  0
 22 23  2  0
 23 24  1  0
 24 25  2  0
 25 26  1  0
 20  2  1  0
 26 22  1  0
 16 11  1  0
M  END
$$$$
