
     RDKit          3D

 34 36  0  0  0  0  0  0  0  0999 V2000
  -32.4222   18.0592  -24.6464 C   0  0  0  0  0  0  0  0  0  0  0  0
  -31.9988   17.9380  -26.0889 C   0  0  0  0  0  0  0  0  0  0  0  0
  -30.5774   17.5090  -26.1127 C   0  0  0  0  0  0  0  0  0  0  0  0
  -29.5395   18.3964  -26.0770 N   0  0  0  0  0  0  0  0  0  0  0  0
  -28.4100   17.7224  -26.1463 N   0  0  0  0  0  0  0  0  0  0  0  0
  -27.0639   18.2745  -26.1383 C   0  0  0  0  0  0  0  0  0  0  0  0
  -26.5626   18.5808  -27.5234 C   0  0  0  0  0  0  0  0  0  0  0  0
  -27.5221   19.6011  -28.1398 C   0  0  0  0  0  0  0  0  0  0  0  0
  -27.0654   19.9004  -29.4359 N   0  0  0  0  0  0  0  0  0  0  0  0
  -27.7958   20.8139  -30.2088 C   0  0  0  0  0  0  0  0  0  0  0  0
  -27.0646   21.4835  -31.3270 C   0  0  0  0  0  0  0  0  0  0  0  0
  -25.6895   20.9721  -31.3297 N   0  0  0  0  0  0  0  0  0  0  0  0
  -24.5475   21.7943  -31.2999 C   0  0  0  0  0  0  0  0  0  0  0  0
  -23.3028   21.2548  -31.0493 C   0  0  0  0  0  0  0  0  0  0  0  0
  -22.1617   22.0331  -31.0236 C   0  0  0  0  0  0  0  0  0  0  0  0
  -22.2251   23.3802  -31.2477 C   0  0  0  0  0  0  0  0  0  0  0  0
  -23.4549   23.9473  -31.5007 C   0  0  0  0  0  0  0  0  0  0  0  0
  -23.5777   25.6723  -31.7929 Cl  0  0  0  0  0  0  0  0  0  0  0  0
  -24.5901   23.1553  -31.5235 C   0  0  0  0  0  0  0  0  0  0  0  0
  -25.6286   19.5142  -31.3774 C   0  0  0  0  0  0  0  0  0  0  0  0
  -26.2102   18.9973  -30.0841 C   0  0  0  0  0  0  0  0  0  0  0  0
  -28.7381   16.4302  -26.2246 C   0  0  0  0  0  0  0  0  0  0  0  0
  -27.8790   15.4936  -26.3052 O   0  0  0  0  0  0  0  0  0  0  0  0
  -30.1054   16.2651  -26.2057 N   0  0  0  0  0  0  0  0  0  0  0  0
  -30.7419   14.9834  -26.3249 C   0  0  0  0  0  0  0  0  0  0  0  0
  -30.9395   14.2058  -25.0843 C   0  0  0  0  0  0  0  0  0  0  0  0
  -31.7263   14.6567  -24.0776 O   0  0  0  0  0  0  0  0  0  0  0  0
  -33.0748   14.9057  -23.9898 C   0  0  0  0  0  0  0  0  0  0  0  0
  -33.9642   14.7013  -25.0173 C   0  0  0  0  0  0  0  0  0  0  0  0
  -35.3244   14.9837  -24.8461 C   0  0  0  0  0  0  0  0  0  0  0  0
  -35.8375   15.4686  -23.6713 C   0  0  0  0  0  0  0  0  0  0  0  0
  -34.9496   15.6738  -22.6404 C   0  0  0  0  0  0  0  0  0  0  0  0
  -33.6240   15.4002  -22.8035 C   0  0  0  0  0  0  0  0  0  0  0  0
  -29.2125   18.0558  -27.2118 Cl  0  0  0  0  0  0  0  0  0  0  0  0
  1  2  1  0
  2  3  1  0
  3  4  2  0
  4  5  1  0
  5  6  1  0
  6  7  1  0
  7  8  1  0
  8  9  1  0
  9 10  1  0
 10 11  1  0
 11 12  1  0
 12 13  1  0
 13 14  2  0
 14 15  1  0
 15 16  2  0
 16 17  1  0
 17 18  1  0
 17 19  2  0
 12 20  1  0
 20 21  1  0
  5 22  1  0
 22 23  2  0
 22 24  1  0
 24 25  1  0
 25 26  1  0
 26 27  1  0
 27 28  1  0
 28 29  2  0
 29 30  1  0
 30 31  2  0
 31 32  1  0
 32 33  2  0
 24  3  1  0
 33 28  1  0
 21  9  1  0
 19 13  1  0
M  END
$$$$
