
     RDKit          3D

 43 49  0  0  0  0  0  0  0  0999 V2000
  -31.0978   21.9564  -27.6349 C   0  0  0  0  0  0  0  0  0  0  0  0
  -31.2239   20.8943  -28.7249 C   0  0  0  0  0  0  0  0  0  0  0  0
  -30.0784   19.9746  -28.5581 C   0  0  0  0  0  0  0  0  0  0  0  0
  -28.8135   20.3892  -28.9632 C   0  0  0  0  0  0  0  0  0  0  0  0
  -27.7228   19.5616  -28.8238 C   0  0  0  0  0  0  0  0  0  0  0  0
  -27.8575   18.3358  -28.2933 N   0  0  0  0  0  0  0  0  0  0  0  0
  -29.0684   17.9122  -27.8942 C   0  0  0  0  0  0  0  0  0  0  0  0
  -29.1475   16.6268  -27.3462 C   0  0  0  0  0  0  0  0  0  0  0  0
  -30.3714   16.1575  -26.9224 C   0  0  0  0  0  0  0  0  0  0  0  0
  -31.4913   16.9497  -27.0412 C   0  0  0  0  0  0  0  0  0  0  0  0
  -32.7531   16.5289  -26.6304 O   0  0  0  0  0  0  0  0  0  0  0  0
  -32.9564   16.3862  -25.2444 C   0  0  0  0  0  0  0  0  0  0  0  0
  -32.5377   17.2655  -24.4424 O   0  0  0  0  0  0  0  0  0  0  0  0
  -33.6319   15.2586  -24.7234 N   0  0  0  0  0  0  0  0  0  0  0  0
  -34.0647   14.1574  -25.5955 C   0  0  0  0  0  0  0  0  0  0  0  0
  -34.8647   13.1584  -24.7252 C   0  0  0  0  0  0  0  0  0  0  0  0
  -35.9608   13.9459  -24.0978 C   0  0  0  0  0  0  0  0  0  0  0  0
  -36.9683   13.1914  -23.4504 N   0  0  0  0  0  0  0  0  0  0  0  0
  -36.5327   11.9772  -22.8254 C   0  0  0  0  0  0  0  0  0  0  0  0
  -36.4746   12.0788  -21.3193 C   0  0  0  0  0  0  0  0  0  0  0  0
  -37.7369   12.6753  -20.7378 C   0  0  0  0  0  0  0  0  0  0  0  0
  -37.8468   14.0832  -21.3427 C   0  0  0  0  0  0  0  0  0  0  0  0
  -38.0402   13.8451  -22.8254 C   0  0  0  0  0  0  0  0  0  0  0  0
  -35.3760   14.9019  -23.0834 C   0  0  0  0  0  0  0  0  0  0  0  0
  -33.9137   15.1716  -23.3003 C   0  0  0  0  0  0  0  0  0  0  0  0
  -31.4026   18.2369  -27.5919 C   0  0  0  0  0  0  0  0  0  0  0  0
  -30.1926   18.7220  -28.0200 C   0  0  0  0  0  0  0  0  0  0  0  0
  -26.5365   20.2715  -29.3369 C   0  0  0  0  0  0  0  0  0  0  0  0
  -25.2396   19.8378  -29.3992 C   0  0  0  0  0  0  0  0  0  0  0  0
  -24.2925   20.6898  -29.9275 C   0  0  0  0  0  0  0  0  0  0  0  0
  -24.6725   21.9358  -30.3711 C   0  0  0  0  0  0  0  0  0  0  0  0
  -26.0085   22.3089  -30.2765 C   0  0  0  0  0  0  0  0  0  0  0  0
  -26.3110   23.4721  -30.7005 O   0  0  0  0  0  0  0  0  0  0  0  0
  -26.9332   21.4835  -29.7635 N   0  0  0  0  0  0  0  0  0  0  0  0
  -28.3590   21.6551  -29.5690 C   0  0  0  0  0  0  0  0  0  0  0  0
  -23.6606   22.8893  -30.9525 C   0  0  0  0  0  0  0  0  0  0  0  0
  -22.6319   22.1895  -31.6014 O   0  0  0  0  0  0  0  0  0  0  0  0
  -22.3609   20.8371  -31.3287 C   0  0  0  0  0  0  0  0  0  0  0  0
  -21.7312   20.1989  -32.1819 O   0  0  0  0  0  0  0  0  0  0  0  0
  -22.8620   20.3230  -30.0431 C   0  0  1  0  0  0  0  0  0  0  0  0
  -22.1814   20.9812  -29.0197 O   0  0  0  0  0  0  0  0  0  0  0  0
  -22.6361   18.8445  -29.8742 C   0  0  0  0  0  0  0  0  0  0  0  0
  -21.1860   18.4614  -30.0071 C   0  0  0  0  0  0  0  0  0  0  0  0
  1  2  1  0
  2  3  1  0
  3  4  2  0
  4  5  1  0
  5  6  2  0
  6  7  1  0
  7  8  2  0
  8  9  1  0
  9 10  2  0
 10 11  1  0
 11 12  1  0
 12 13  2  0
 12 14  1  0
 14 15  1  0
 15 16  1  0
 16 17  1  0
 17 18  1  0
 18 19  1  0
 19 20  1  0
 20 21  1  0
 21 22  1  0
 22 23  1  0
 17 24  1  0
 24 25  1  0
 10 26  1  0
 26 27  2  0
  5 28  1  0
 28 29  2  0
 29 30  1  0
 30 31  2  0
 31 32  1  0
 32 33  2  0
 32 34  1  0
 34 35  1  0
 31 36  1  0
 36 37  1  0
 37 38  1  0
 38 39  2  0
 38 40  1  0
 40 41  1  1
 40 42  1  0
 42 43  1  0
 27  3  1  0
 34 28  1  0
 35  4  1  0
 27  7  1  0
 40 30  1  0
 25 14  1  0
 23 18  1  0
M  END
$$$$
