
     RDKit          3D

 20 19  0  0  0  0  0  0  0  0999 V2000
  -38.9137   11.8820  -22.9205 C   0  0  0  0  0  0  0  0  0  0  0  0
  -38.3123   13.0958  -23.5527 C   0  0  0  0  0  0  0  0  0  0  0  0
  -36.9212   12.8526  -24.0870 C   0  0  0  0  0  0  0  0  0  0  0  0
  -36.3332   14.0500  -24.7577 C   0  0  0  0  0  0  0  0  0  0  0  0
  -35.0191   14.4703  -24.1825 C   0  0  0  0  0  0  0  0  0  0  0  0
  -34.4681   15.7006  -24.8262 C   0  0  0  0  0  0  0  0  0  0  0  0
  -33.1042   15.9997  -24.2130 C   0  0  0  0  0  0  0  0  0  0  0  0
  -32.6140   17.2967  -24.8539 C   0  0  0  0  0  0  0  0  0  0  0  0
  -31.5058   17.9016  -24.0614 C   0  0  0  0  0  0  0  0  0  0  0  0
  -30.2463   17.8755  -24.4722 C   0  0  0  0  0  0  0  0  0  0  0  0
  -29.6979   16.6526  -25.1041 C   0  0  0  0  0  0  0  0  0  0  0  0
  -28.1663   16.7240  -25.1910 C   0  0  0  0  0  0  0  0  0  0  0  0
  -27.8204   16.8063  -26.6375 C   0  0  0  0  0  0  0  0  0  0  0  0
  -26.9829   17.9921  -27.0097 C   0  0  0  0  0  0  0  0  0  0  0  0
  -26.6128   18.0457  -28.4648 C   0  0  0  0  0  0  0  0  0  0  0  0
  -25.7705   19.2339  -28.7781 C   0  0  0  0  0  0  0  0  0  0  0  0
  -25.3785   19.3564  -30.2127 C   0  0  0  0  0  0  0  0  0  0  0  0
  -24.3638   20.3749  -30.4988 C   0  0  0  0  0  0  0  0  0  0  0  0
  -24.0380   21.2253  -29.6450 O   0  0  0  0  0  0  0  0  0  0  0  0
  -23.7680   20.3577  -31.7790 O   0  0  0  0  0  0  0  0  0  0  0  0
  1  2  1  0
  2  3  1  0
  3  4  1  0
  4  5  1  0
  5  6  1  0
  6  7  1  0
  7  8  1  0
  8  9  1  0
  9 10  2  0
 10 11  1  0
 11 12  1  0
 12 13  1  0
 13 14  1  0
 14 15  1  0
 15 16  1  0
 16 17  1  0
 17 18  1  0
 18 19  2  0
 18 20  1  0
M  END
$$$$
