
     RDKit          3D

 33 37  0  0  0  0  0  0  0  0999 V2000
  -10.9481   15.3803  -36.7852 C   0  0  0  0  0  0  0  0  0  0  0  0
  -12.2121   15.8364  -37.2415 N   0  0  0  0  0  0  0  0  0  0  0  0
  -12.3566   17.2597  -37.1042 C   0  0  0  0  0  0  0  0  0  0  0  0
  -11.9631   18.0449  -38.3282 C   0  0  0  0  0  0  0  0  0  0  0  0
  -13.0948   18.2751  -39.2964 C   0  0  0  0  0  0  0  0  0  0  0  0
  -13.6866   17.0613  -39.7861 N   0  0  0  0  0  0  0  0  0  0  0  0
  -14.1643   17.0040  -41.1033 C   0  0  0  0  0  0  0  0  0  0  0  0
  -14.5697   15.8780  -41.5993 O   0  0  0  0  0  0  0  0  0  0  0  0
  -14.2663   18.1129  -42.0281 C   0  0  0  0  0  0  0  0  0  0  0  0
  -13.1073   18.4010  -42.7563 C   0  0  0  0  0  0  0  0  0  0  0  0
  -13.1218   19.4795  -43.6023 C   0  0  0  0  0  0  0  0  0  0  0  0
  -14.2758   20.2731  -43.7293 C   0  0  0  0  0  0  0  0  0  0  0  0
  -15.4151   19.9967  -43.0195 C   0  0  0  0  0  0  0  0  0  0  0  0
  -16.5949   20.8702  -43.0882 C   0  0  0  0  0  0  0  0  0  0  0  0
  -16.7039   21.9954  -43.8998 C   0  0  0  0  0  0  0  0  0  0  0  0
  -17.9401   22.5167  -43.6672 C   0  0  0  0  0  0  0  0  0  0  0  0
  -18.5926   21.6886  -42.6971 C   0  0  0  0  0  0  0  0  0  0  0  0
  -19.9303   21.9900  -42.2699 C   0  0  0  0  0  0  0  0  0  0  0  0
  -20.7434   21.2083  -41.6364 C   0  0  0  0  0  0  0  0  0  0  0  0
  -22.2224   21.1286  -41.8739 C   0  0  0  0  0  0  0  0  0  0  0  0
  -22.8450   21.8250  -42.7221 O   0  0  0  0  0  0  0  0  0  0  0  0
  -22.7100   20.1586  -40.9816 N   0  0  0  0  0  0  0  0  0  0  0  0
  -21.6253   19.6488  -40.2192 C   0  0  0  0  0  0  0  0  0  0  0  0
  -21.6634   18.6968  -39.2318 C   0  0  0  0  0  0  0  0  0  0  0  0
  -20.4785   18.3577  -38.6016 C   0  0  0  0  0  0  0  0  0  0  0  0
  -19.3052   18.9585  -38.9540 C   0  0  0  0  0  0  0  0  0  0  0  0
  -17.8415   18.4933  -38.1218 Cl  0  0  0  0  0  0  0  0  0  0  0  0
  -19.2449   19.9239  -39.9513 C   0  0  0  0  0  0  0  0  0  0  0  0
  -20.4239   20.2573  -40.5811 C   0  0  0  0  0  0  0  0  0  0  0  0
  -17.7004   20.7956  -42.4643 O   0  0  0  0  0  0  0  0  0  0  0  0
  -15.3855   18.9045  -42.1728 C   0  0  0  0  0  0  0  0  0  0  0  0
  -13.8554   15.8205  -39.0184 C   0  0  0  0  0  0  0  0  0  0  0  0
  -12.4735   15.3851  -38.5904 C   0  0  0  0  0  0  0  0  0  0  0  0
  1  2  1  0
  2  3  1  0
  3  4  1  0
  4  5  1  0
  5  6  1  0
  6  7  1  0
  7  8  2  0
  7  9  1  0
  9 10  2  0
 10 11  1  0
 11 12  2  0
 12 13  1  0
 13 14  1  0
 14 15  2  0
 15 16  1  0
 16 17  2  0
 17 18  1  0
 18 19  2  0
 19 20  1  0
 20 21  2  0
 20 22  1  0
 22 23  1  0
 23 24  2  0
 24 25  1  0
 25 26  2  0
 26 27  1  0
 26 28  1  0
 28 29  2  0
 17 30  1  0
 13 31  2  0
  6 32  1  0
 32 33  1  0
 33  2  1  0
 31  9  1  0
 30 14  1  0
 29 19  1  0
 29 23  1  0
M  END
$$$$
