
     RDKit          3D

 30 32  0  0  0  0  0  0  0  0999 V2000
  -19.1454   40.4012  -22.4080 C   0  0  0  0  0  0  0  0  0  0  0  0
  -19.6553   39.2610  -23.2580 C   0  0  0  0  0  0  0  0  0  0  0  0
  -20.6478   39.4128  -24.1409 N   0  0  0  0  0  0  0  0  0  0  0  0
  -21.1294   38.6723  -24.8344 C   0  0  0  0  0  0  0  0  0  0  0  0
  -22.1870   38.5113  -25.8801 N   0  0  0  0  0  0  0  0  0  0  0  0
  -21.8497   38.6926  -27.2409 C   0  0  0  0  0  0  0  0  0  0  0  0
  -20.6015   38.7393  -27.4959 O   0  0  0  0  0  0  0  0  0  0  0  0
  -22.7987   38.8169  -28.2721 N   0  0  0  0  0  0  0  0  0  0  0  0
  -24.1754   38.3891  -28.1860 C   0  0  0  0  0  0  0  0  0  0  0  0
  -24.3675   37.7579  -29.5693 C   0  0  0  0  0  0  0  0  0  0  0  0
  -23.7216   38.8032  -30.4527 C   0  0  0  0  0  0  0  0  0  0  0  0
  -22.6180   39.3754  -29.5906 C   0  0  1  0  0  0  0  0  0  0  0  0
  -22.6471   40.8588  -29.5712 C   0  0  0  0  0  0  0  0  0  0  0  0
  -23.0163   41.6083  -28.4225 N   0  0  0  0  0  0  0  0  0  0  0  0
  -22.3295   41.4711  -30.6220 O   0  0  0  0  0  0  0  0  0  0  0  0
  -20.1486   37.1080  -24.4226 S   0  0  0  0  0  0  0  0  0  0  0  0
  -19.1497   38.0205  -23.1871 C   0  0  0  0  0  0  0  0  0  0  0  0
  -18.0958   37.3405  -22.4190 C   0  0  0  0  0  0  0  0  0  0  0  0
  -17.4647   38.0271  -21.3870 C   0  0  0  0  0  0  0  0  0  0  0  0
  -16.4927   37.4356  -20.6607 C   0  0  0  0  0  0  0  0  0  0  0  0
  -16.1294   36.1753  -20.9331 N   0  0  0  0  0  0  0  0  0  0  0  0
  -16.7071   35.4764  -21.9147 C   0  0  0  0  0  0  0  0  0  0  0  0
  -16.2857   34.0779  -22.1977 C   0  0  0  0  0  0  0  0  0  0  0  0
  -17.4987   33.2526  -22.5914 C   0  0  0  0  0  0  0  0  0  0  0  0
  -15.2881   34.1026  -23.3255 C   0  0  0  0  0  0  0  0  0  0  0  0
  -15.6442   33.5277  -20.9466 C   0  0  0  0  0  0  0  0  0  0  0  0
  -16.4788   33.5918  -19.8616 F   0  0  0  0  0  0  0  0  0  0  0  0
  -15.2753   32.2137  -21.2380 F   0  0  0  0  0  0  0  0  0  0  0  0
  -14.4675   34.2268  -20.7384 F   0  0  0  0  0  0  0  0  0  0  0  0
  -17.7026   36.0593  -22.6706 C   0  0  0  0  0  0  0  0  0  0  0  0
  1  2  1  0
  2  3  1  0
  3  4  2  0
  4  5  1  0
  5  6  1  0
  6  7  2  0
  6  8  1  0
  8  9  1  0
  9 10  1  0
 10 11  1  0
 11 12  1  0
 12 13  1  1
 13 14  1  0
 13 15  2  0
  4 16  1  0
 16 17  1  0
 17 18  1  0
 18 19  2  0
 19 20  1  0
 20 21  2  0
 21 22  1  0
 22 23  1  0
 23 24  1  0
 23 25  1  0
 23 26  1  0
 26 27  1  0
 26 28  1  0
 26 29  1  0
 22 30  2  0
 17  2  2  0
 30 18  1  0
 12  8  1  0
M  END
$$$$
