
     RDKit          3D

 25 28  0  0  0  0  0  0  0  0999 V2000
  -20.4257   40.6378  -24.4002 C   0  0  0  0  0  0  0  0  0  0  0  0
  -18.9997   40.3093  -24.1457 C   0  0  0  0  0  0  0  0  0  0  0  0
  -18.5247   40.4537  -22.7671 C   0  0  0  0  0  0  0  0  0  0  0  0
  -18.2618   41.6408  -22.1262 C   0  0  0  0  0  0  0  0  0  0  0  0
  -18.4167   42.9114  -22.7735 C   0  0  0  0  0  0  0  0  0  0  0  0
  -19.5746   43.6677  -22.5403 C   0  0  0  0  0  0  0  0  0  0  0  0
  -19.7651   44.9112  -23.1090 C   0  0  0  0  0  0  0  0  0  0  0  0
  -18.8012   45.4453  -23.9341 C   0  0  0  0  0  0  0  0  0  0  0  0
  -18.6739   46.5815  -24.6229 N   0  0  0  0  0  0  0  0  0  0  0  0
  -17.5323   46.6145  -25.2757 N   0  0  0  0  0  0  0  0  0  0  0  0
  -16.8707   45.4676  -25.0194 C   0  0  0  0  0  0  0  0  0  0  0  0
  -17.6662   44.7051  -24.1623 C   0  0  0  0  0  0  0  0  0  0  0  0
  -17.4697   43.4558  -23.5933 C   0  0  0  0  0  0  0  0  0  0  0  0
  -17.8189   41.6417  -20.8017 C   0  0  0  0  0  0  0  0  0  0  0  0
  -17.6396   40.5085  -20.1276 N   0  0  0  0  0  0  0  0  0  0  0  0
  -17.8890   39.3221  -20.7289 C   0  0  0  0  0  0  0  0  0  0  0  0
  -17.6998   38.1218  -20.0195 N   0  0  0  0  0  0  0  0  0  0  0  0
  -18.3223   39.3101  -22.0227 C   0  0  0  0  0  0  0  0  0  0  0  0
  -18.5885   38.0239  -22.6589 C   0  0  0  0  0  0  0  0  0  0  0  0
  -19.8244   37.4338  -22.5134 C   0  0  0  0  0  0  0  0  0  0  0  0
  -20.0928   36.2206  -23.1041 C   0  0  0  0  0  0  0  0  0  0  0  0
  -19.1369   35.5711  -23.8511 C   0  0  0  0  0  0  0  0  0  0  0  0
  -19.3779   34.3372  -24.4645 O   0  0  0  0  0  0  0  0  0  0  0  0
  -17.8800   36.1522  -24.0100 C   0  0  0  0  0  0  0  0  0  0  0  0
  -17.6414   37.3624  -23.4092 C   0  0  0  0  0  0  0  0  0  0  0  0
  1  2  1  0
  2  3  1  0
  3  4  2  0
  4  5  1  0
  5  6  2  0
  6  7  1  0
  7  8  2  0
  8  9  1  0
  9 10  1  0
 10 11  2  0
 11 12  1  0
 12 13  2  0
  4 14  1  0
 14 15  2  0
 15 16  1  0
 16 17  1  0
 16 18  2  0
 18 19  1  0
 19 20  2  0
 20 21  1  0
 21 22  2  0
 22 23  1  0
 22 24  1  0
 24 25  2  0
 18  3  1  0
 25 19  1  0
 13  5  1  0
 12  8  1  0
M  END
$$$$
