
     RDKit          3D

 42 47  0  0  0  0  0  0  0  0999 V2000
  -13.0415   19.8792  -43.6897 C   0  0  0  0  0  0  0  0  0  0  0  0
  -13.7204   18.9729  -42.8564 O   0  0  0  0  0  0  0  0  0  0  0  0
  -15.0335   19.1969  -42.4206 C   0  0  0  0  0  0  0  0  0  0  0  0
  -15.9667   19.8529  -43.1966 C   0  0  0  0  0  0  0  0  0  0  0  0
  -17.2619   20.0679  -42.7548 C   0  0  0  0  0  0  0  0  0  0  0  0
  -18.2621   20.7653  -43.5243 C   0  0  0  0  0  0  0  0  0  0  0  0
  -18.2094   22.0432  -43.4522 O   0  0  0  0  0  0  0  0  0  0  0  0
  -19.2655   20.2276  -44.3256 N   0  0  0  0  0  0  0  0  0  0  0  0
  -19.1510   18.9290  -44.9242 C   0  0  0  0  0  0  0  0  0  0  0  0
  -19.9204   18.8440  -46.2282 C   0  0  0  0  0  0  0  0  0  0  0  0
  -19.8998   20.1593  -46.9349 C   0  0  0  0  0  0  0  0  0  0  0  0
  -20.5468   20.1701  -48.1920 N   0  0  0  0  0  0  0  0  0  0  0  0
  -20.8016   21.4262  -48.7997 C   0  0  0  0  0  0  0  0  0  0  0  0
  -21.6938   21.2455  -50.0384 C   0  0  0  0  0  0  0  0  0  0  0  0
  -21.1614   20.0696  -50.7127 N   0  0  0  0  0  0  0  0  0  0  0  0
  -21.5474   19.9730  -52.0867 C   0  0  0  0  0  0  0  0  0  0  0  0
  -21.4020   18.8512  -49.9775 C   0  0  0  0  0  0  0  0  0  0  0  0
  -21.4550   19.1136  -48.4758 C   0  0  0  0  0  0  0  0  0  0  0  0
  -20.3837   21.3229  -46.0963 C   0  0  0  0  0  0  0  0  0  0  0  0
  -20.5105   20.9474  -44.6284 C   0  0  0  0  0  0  0  0  0  0  0  0
  -17.6638   19.6187  -41.4934 C   0  0  0  0  0  0  0  0  0  0  0  0
  -16.7118   18.9664  -40.7385 C   0  0  0  0  0  0  0  0  0  0  0  0
  -15.4283   18.7556  -41.1786 C   0  0  0  0  0  0  0  0  0  0  0  0
  -14.4860   18.0960  -40.3515 N   0  0  0  0  0  0  0  0  0  0  0  0
  -14.8612   17.7722  -39.0247 C   0  0  0  0  0  0  0  0  0  0  0  0
  -13.9892   17.2682  -38.1280 N   0  0  0  0  0  0  0  0  0  0  0  0
  -14.3629   16.9619  -36.8673 C   0  0  0  0  0  0  0  0  0  0  0  0
  -15.6562   17.1572  -36.4591 C   0  0  0  0  0  0  0  0  0  0  0  0
  -16.5441   17.6720  -37.3794 C   0  0  0  0  0  0  0  0  0  0  0  0
  -16.1273   17.9631  -38.6248 N   0  0  0  0  0  0  0  0  0  0  0  0
  -17.9507   17.9607  -37.2169 N   0  0  0  0  0  0  0  0  0  0  0  0
  -18.5388   18.8825  -38.1441 C   0  0  0  0  0  0  0  0  0  0  0  0
  -18.8070   17.4082  -36.2208 C   0  0  0  0  0  0  0  0  0  0  0  0
  -20.1326   17.5073  -36.5667 C   0  0  0  0  0  0  0  0  0  0  0  0
  -21.1463   17.0311  -35.7422 C   0  0  0  0  0  0  0  0  0  0  0  0
  -20.8472   16.4379  -34.5380 C   0  0  0  0  0  0  0  0  0  0  0  0
  -19.5204   16.3326  -34.1794 C   0  0  0  0  0  0  0  0  0  0  0  0
  -18.5216   16.8087  -35.0052 C   0  0  0  0  0  0  0  0  0  0  0  0
  -17.1708   16.6176  -34.4787 C   0  0  0  0  0  0  0  0  0  0  0  0
  -17.1244   16.2338  -33.2825 O   0  0  0  0  0  0  0  0  0  0  0  0
  -15.8995   16.7967  -35.1071 N   0  0  0  0  0  0  0  0  0  0  0  0
  -14.7026   16.6018  -34.3146 C   0  0  0  0  0  0  0  0  0  0  0  0
  1  2  1  0
  2  3  1  0
  3  4  2  0
  4  5  1  0
  5  6  1  0
  6  7  2  0
  6  8  1  0
  8  9  1  0
  9 10  1  0
 10 11  1  0
 11 12  1  0
 12 13  1  0
 13 14  1  0
 14 15  1  0
 15 16  1  0
 15 17  1  0
 17 18  1  0
 11 19  1  0
 19 20  1  0
  5 21  2  0
 21 22  1  0
 22 23  2  0
 23 24  1  0
 24 25  1  0
 25 26  2  0
 26 27  1  0
 27 28  2  0
 28 29  1  0
 29 30  2  0
 29 31  1  0
 31 32  1  0
 31 33  1  0
 33 34  2  0
 34 35  1  0
 35 36  2  0
 36 37  1  0
 37 38  2  0
 38 39  1  0
 39 40  2  0
 39 41  1  0
 41 42  1  0
 23  3  1  0
 30 25  1  0
 38 33  1  0
 20  8  1  0
 41 28  1  0
 18 12  1  0
M  END
$$$$
