
     RDKit          3D

 12 13  0  0  0  0  0  0  0  0999 V2000
  -18.4825   33.3579  -22.6022 C   0  0  0  0  0  0  0  0  0  0  0  0
  -17.8927   34.6312  -22.0818 C   0  0  0  0  0  0  0  0  0  0  0  0
  -16.7668   34.6812  -21.3665 N   0  0  0  0  0  0  0  0  0  0  0  0
  -16.5479   35.9557  -21.0798 N   0  0  0  0  0  0  0  0  0  0  0  0
  -17.5284   36.6908  -21.6118 C   0  0  0  0  0  0  0  0  0  0  0  0
  -17.7024   38.0995  -21.5570 N   0  0  0  0  0  0  0  0  0  0  0  0
  -18.2224   38.7861  -22.5090 C   0  0  0  0  0  0  0  0  0  0  0  0
  -18.9311   38.2194  -23.6808 C   0  0  0  0  0  0  0  0  0  0  0  0
  -19.0130   39.4633  -24.5762 C   0  0  0  0  0  0  0  0  0  0  0  0
  -19.2338   40.5475  -23.5457 C   0  0  0  0  0  0  0  0  0  0  0  0
  -18.1885   40.2020  -22.5690 N   0  0  0  0  0  0  0  0  0  0  0  0
  -18.3322   35.8452  -22.2171 O   0  0  0  0  0  0  0  0  0  0  0  0
  1  2  1  0
  2  3  2  0
  3  4  1  0
  4  5  2  0
  5  6  1  0
  6  7  2  3
  7  8  1  0
  8  9  1  0
  9 10  1  0
 10 11  1  0
  5 12  1  0
 12  2  1  0
 11  7  1  0
M  END
$$$$
