
     RDKit          3D

 34 38  0  0  0  0  0  0  0  0999 V2000
  -19.3804   20.1085  -42.6961 C   0  0  0  0  0  0  0  0  0  0  0  0
  -18.6905   21.1367  -41.9688 N   0  0  0  0  0  0  0  0  0  0  0  0
  -18.3090   21.0535  -40.6852 C   0  0  0  0  0  0  0  0  0  0  0  0
  -18.4882   19.7971  -39.4827 S   0  0  0  0  0  0  0  0  0  0  0  0
  -17.8000   19.9992  -37.9155 C   0  0  0  0  0  0  0  0  0  0  0  0
  -17.0312   18.8499  -37.4149 C   0  0  0  0  0  0  0  0  0  0  0  0
  -17.2771   17.6951  -37.9926 O   0  0  0  0  0  0  0  0  0  0  0  0
  -16.0486   18.7805  -36.3967 N   0  0  0  0  0  0  0  0  0  0  0  0
  -15.1942   19.8176  -35.8537 C   0  0  0  0  0  0  0  0  0  0  0  0
  -15.4583   19.5746  -34.3538 C   0  0  0  0  0  0  0  0  0  0  0  0
  -15.2084   18.0559  -34.3213 C   0  0  0  0  0  0  0  0  0  0  0  0
  -15.7037   17.5703  -35.6994 C   0  0  1  0  0  0  0  0  0  0  0  0
  -16.7999   16.6051  -35.4761 C   0  0  0  0  0  0  0  0  0  0  0  0
  -16.9075   15.5130  -36.0300 O   0  0  0  0  0  0  0  0  0  0  0  0
  -17.8333   16.9573  -34.5360 N   0  0  0  0  0  0  0  0  0  0  0  0
  -18.5166   15.9851  -33.7760 C   0  0  0  0  0  0  0  0  0  0  0  0
  -17.7529   15.1222  -32.9877 C   0  0  0  0  0  0  0  0  0  0  0  0
  -18.3872   14.1397  -32.2342 C   0  0  0  0  0  0  0  0  0  0  0  0
  -19.7522   14.0009  -32.2501 C   0  0  0  0  0  0  0  0  0  0  0  0
  -20.4855   14.8622  -33.0342 C   0  0  0  0  0  0  0  0  0  0  0  0
  -19.8891   15.8628  -33.8061 C   0  0  0  0  0  0  0  0  0  0  0  0
  -20.7460   16.7383  -34.6065 C   0  0  0  0  0  0  0  0  0  0  0  0
  -21.7168   17.5074  -34.0037 C   0  0  0  0  0  0  0  0  0  0  0  0
  -22.4811   18.3191  -34.8297 C   0  0  0  0  0  0  0  0  0  0  0  0
  -22.3022   18.3754  -36.1905 C   0  0  0  0  0  0  0  0  0  0  0  0
  -21.3266   17.6026  -36.7990 C   0  0  0  0  0  0  0  0  0  0  0  0
  -20.5620   16.7931  -35.9893 C   0  0  0  0  0  0  0  0  0  0  0  0
  -17.6837   22.2192  -40.3656 N   0  0  0  0  0  0  0  0  0  0  0  0
  -17.6728   23.0141  -41.4206 C   0  0  0  0  0  0  0  0  0  0  0  0
  -17.1635   24.3033  -41.6253 C   0  0  0  0  0  0  0  0  0  0  0  0
  -17.3128   24.8722  -42.8623 C   0  0  0  0  0  0  0  0  0  0  0  0
  -17.9484   24.2064  -43.8979 C   0  0  0  0  0  0  0  0  0  0  0  0
  -18.4389   22.9482  -43.6773 C   0  0  0  0  0  0  0  0  0  0  0  0
  -18.3078   22.3358  -42.4376 C   0  0  0  0  0  0  0  0  0  0  0  0
  1  2  1  0
  2  3  1  0
  3  4  1  0
  4  5  1  0
  5  6  1  0
  6  7  2  0
  6  8  1  0
  8  9  1  0
  9 10  1  0
 10 11  1  0
 11 12  1  0
 12 13  1  1
 13 14  2  0
 13 15  1  0
 15 16  1  0
 16 17  2  0
 17 18  1  0
 18 19  2  0
 19 20  1  0
 20 21  2  0
 21 22  1  0
 22 23  2  0
 23 24  1  0
 24 25  2  0
 25 26  1  0
 26 27  2  0
  3 28  2  0
 28 29  1  0
 29 30  2  0
 30 31  1  0
 31 32  2  0
 32 33  1  0
 33 34  2  0
 34  2  1  0
 12  8  1  0
 21 16  1  0
 27 22  1  0
 34 29  1  0
M  END
$$$$
