
     RDKit          3D

 27 30  0  0  0  0  0  0  0  0999 V2000
  -17.8336   37.3326  -26.2151 N   0  0  0  0  0  0  0  0  0  0  0  0
  -17.9308   37.6355  -25.0856 C   0  0  0  0  0  0  0  0  0  0  0  0
  -18.0282   37.9977  -23.6898 C   0  0  0  0  0  0  0  0  0  0  0  0
  -18.9167   39.1851  -23.5747 C   0  0  0  0  0  0  0  0  0  0  0  0
  -20.0211   39.3056  -24.3555 C   0  0  0  0  0  0  0  0  0  0  0  0
  -20.8121   40.4283  -24.2319 C   0  0  0  0  0  0  0  0  0  0  0  0
  -20.4647   41.3861  -23.3320 N   0  0  0  0  0  0  0  0  0  0  0  0
  -19.3753   41.2492  -22.5755 C   0  0  0  0  0  0  0  0  0  0  0  0
  -18.9269   42.2437  -21.6369 N   0  0  0  0  0  0  0  0  0  0  0  0
  -17.6403   42.0492  -20.9576 C   0  0  0  0  0  0  0  0  0  0  0  0
  -16.6336   42.9580  -21.6285 C   0  0  0  0  0  0  0  0  0  0  0  0
  -15.4622   43.0443  -20.7488 C   0  0  0  0  0  0  0  0  0  0  0  0
  -14.5131   44.0144  -20.9178 C   0  0  0  0  0  0  0  0  0  0  0  0
  -13.3950   44.0986  -20.0808 C   0  0  0  0  0  0  0  0  0  0  0  0
  -13.2722   43.1635  -19.0647 C   0  0  0  0  0  0  0  0  0  0  0  0
  -14.2196   42.2023  -18.9036 N   0  0  0  0  0  0  0  0  0  0  0  0
  -15.2979   42.1224  -19.7127 C   0  0  0  0  0  0  0  0  0  0  0  0
  -18.6170   40.1482  -22.7086 N   0  0  0  0  0  0  0  0  0  0  0  0
  -18.5886   36.8579  -22.9617 C   0  0  0  0  0  0  0  0  0  0  0  0
  -18.4188   35.5559  -23.0074 N   0  0  0  0  0  0  0  0  0  0  0  0
  -19.0445   34.7236  -22.2605 C   0  0  0  0  0  0  0  0  0  0  0  0
  -18.8939   33.3100  -22.2703 C   0  0  0  0  0  0  0  0  0  0  0  0
  -19.6279   32.5538  -21.4136 C   0  0  0  0  0  0  0  0  0  0  0  0
  -20.5360   33.0352  -20.5028 C   0  0  0  0  0  0  0  0  0  0  0  0
  -20.6951   34.4247  -20.4821 C   0  0  0  0  0  0  0  0  0  0  0  0
  -19.9584   35.1804  -21.3417 C   0  0  0  0  0  0  0  0  0  0  0  0
  -19.8368   36.9532  -21.6516 S   0  0  0  0  0  0  0  0  0  0  0  0
  1  2  3  0
  2  3  1  0
  3  4  1  0
  4  5  2  0
  5  6  1  0
  6  7  2  0
  7  8  1  0
  8  9  1  0
  9 10  1  0
 10 11  1  0
 11 12  1  0
 12 13  2  0
 13 14  1  0
 14 15  2  0
 15 16  1  0
 16 17  2  0
  8 18  2  0
  3 19  1  0
 19 20  2  0
 20 21  1  0
 21 22  2  0
 22 23  1  0
 23 24  2  0
 24 25  1  0
 25 26  2  0
 26 27  1  0
 18  4  1  0
 27 19  1  0
 17 12  1  0
 26 21  1  0
M  END
$$$$
