
     RDKit          3D

 14 14  0  0  0  0  0  0  0  0999 V2000
  -18.4832   37.5676  -22.4151 Cl  0  0  0  0  0  0  0  0  0  0  0  0
  -18.4846   42.7693  -21.3441 N   0  0  0  0  0  0  0  0  0  0  0  0
  -17.7837   42.1974  -22.4802 C   0  0  0  0  0  0  0  0  0  0  0  0
  -18.1917   40.7737  -22.6990 C   0  0  0  0  0  0  0  0  0  0  0  0
  -19.1770   40.1971  -23.4320 C   0  0  0  0  0  0  0  0  0  0  0  0
  -19.2703   38.8571  -23.4132 C   0  0  0  0  0  0  0  0  0  0  0  0
  -18.4116   38.1298  -22.6901 C   0  0  0  0  0  0  0  0  0  0  0  0
  -18.2954   36.6886  -22.5002 C   0  0  0  0  0  0  0  0  0  0  0  0
  -19.1616   35.8631  -23.1227 C   0  0  0  0  0  0  0  0  0  0  0  0
  -19.0360   34.4836  -22.9296 C   0  0  0  0  0  0  0  0  0  0  0  0
  -18.0353   33.9755  -22.1101 C   0  0  0  0  0  0  0  0  0  0  0  0
  -17.1687   34.8383  -21.4897 C   0  0  0  0  0  0  0  0  0  0  0  0
  -17.3084   36.1995  -21.6927 C   0  0  0  0  0  0  0  0  0  0  0  0
  -17.3733   39.3260  -21.9581 S   0  0  0  0  0  0  0  0  0  0  0  0
  2  3  1  0
  3  4  1  0
  4  5  2  0
  5  6  1  0
  6  7  2  0
  7  8  1  0
  8  9  2  0
  9 10  1  0
 10 11  2  0
 11 12  1  0
 12 13  2  0
  7 14  1  0
 14  4  1  0
 13  8  1  0
M  END
$$$$
