
     RDKit          3D

 21 23  0  0  0  0  0  0  0  0999 V2000
  -19.6700   39.8187  -27.5580 C   0  0  0  0  0  0  0  0  0  0  0  0
  -20.6325   39.9615  -26.4152 C   0  0  0  0  0  0  0  0  0  0  0  0
  -19.9760   39.5570  -25.1720 N   0  0  0  0  0  0  0  0  0  0  0  0
  -19.9347   38.2570  -24.7994 C   0  0  0  0  0  0  0  0  0  0  0  0
  -20.4739   37.3849  -25.5423 O   0  0  0  0  0  0  0  0  0  0  0  0
  -19.3009   37.9256  -23.6128 C   0  0  0  0  0  0  0  0  0  0  0  0
  -19.2459   36.6172  -23.2144 C   0  0  0  0  0  0  0  0  0  0  0  0
  -18.5981   36.3341  -22.0144 C   0  0  0  0  0  0  0  0  0  0  0  0
  -18.5319   34.9486  -21.5784 C   0  0  0  0  0  0  0  0  0  0  0  0
  -19.3475   33.9578  -22.1812 N   0  0  0  0  0  0  0  0  0  0  0  0
  -17.7509   34.5973  -20.6579 O   0  0  0  0  0  0  0  0  0  0  0  0
  -18.0313   37.3482  -21.2560 C   0  0  0  0  0  0  0  0  0  0  0  0
  -17.3897   36.9707  -20.0451 N   0  0  0  0  0  0  0  0  0  0  0  0
  -18.1057   38.6204  -21.6800 N   0  0  0  0  0  0  0  0  0  0  0  0
  -18.7300   38.9192  -22.8424 C   0  0  0  0  0  0  0  0  0  0  0  0
  -18.7815   40.1869  -23.2254 N   0  0  0  0  0  0  0  0  0  0  0  0
  -18.2122   41.2884  -22.4829 C   0  0  0  0  0  0  0  0  0  0  0  0
  -17.3010   42.2065  -23.3270 C   0  0  0  0  0  0  0  0  0  0  0  0
  -16.7613   41.3768  -22.2126 C   0  0  0  0  0  0  0  0  0  0  0  0
  -19.4063   40.4882  -24.3892 C   0  0  0  0  0  0  0  0  0  0  0  0
  -19.4710   41.6832  -24.7786 O   0  0  0  0  0  0  0  0  0  0  0  0
  1  2  1  0
  2  3  1  0
  3  4  1  0
  4  5  2  0
  4  6  1  0
  6  7  2  0
  7  8  1  0
  8  9  1  0
  9 10  1  0
  9 11  2  0
  8 12  2  0
 12 13  1  0
 12 14  1  0
 14 15  2  0
 15 16  1  0
 16 17  1  0
 17 18  1  0
 18 19  1  0
 16 20  1  0
 20 21  2  0
 20  3  1  0
 15  6  1  0
 19 17  1  0
M  END
$$$$
