
     RDKit          3D

 26 28  0  0  0  0  0  0  0  0999 V2000
    5.9487   19.6589  -15.2385 C   0  0  0  0  0  0  0  0  0  0  0  0
    4.9813   18.6331  -15.6124 C   0  0  0  0  0  0  0  0  0  0  0  0
    5.2331   17.4306  -16.1356 N   0  0  0  0  0  0  0  0  0  0  0  0
    4.0913   16.7719  -16.3385 C   0  0  0  0  0  0  0  0  0  0  0  0
    3.0608   17.6472  -15.9017 C   0  0  0  0  0  0  0  0  0  0  0  0
    1.6787   17.1747  -15.9915 C   0  0  0  0  0  0  0  0  0  0  0  0
    0.8464   16.9137  -14.9626 C   0  0  0  0  0  0  0  0  0  0  0  0
   -0.4495   16.4576  -15.1805 C   0  0  0  0  0  0  0  0  0  0  0  0
   -0.8699   16.2769  -16.4304 N   0  0  0  0  0  0  0  0  0  0  0  0
   -0.0686   16.5266  -17.4780 C   0  0  0  0  0  0  0  0  0  0  0  0
   -0.5271   16.3103  -18.8284 N   0  0  0  0  0  0  0  0  0  0  0  0
    0.0922   17.0557  -19.8656 C   0  0  0  0  0  0  0  0  0  0  0  0
    1.4811   17.2459  -19.8864 C   0  0  0  0  0  0  0  0  0  0  0  0
    2.0674   17.9767  -20.8905 C   0  0  0  0  0  0  0  0  0  0  0  0
    1.3525   18.5555  -21.9160 C   0  0  0  0  0  0  0  0  0  0  0  0
    2.1151   19.5049  -23.1683 S   0  0  0  0  0  6  0  0  0  0  0  0
    3.8656   19.5098  -22.8658 C   0  0  0  0  0  0  0  0  0  0  0  0
    1.8247   18.9142  -24.5345 O   0  0  0  0  0  0  0  0  0  0  0  0
    1.5561   20.8848  -23.1688 O   0  0  0  0  0  0  0  0  0  0  0  0
   -0.0174   18.3729  -21.9044 C   0  0  0  0  0  0  0  0  0  0  0  0
   -0.6105   17.6382  -20.8948 C   0  0  0  0  0  0  0  0  0  0  0  0
    1.1508   16.9578  -17.2308 N   0  0  0  0  0  0  0  0  0  0  0  0
    3.6205   18.7597  -15.4701 N   0  0  0  0  0  0  0  0  0  0  0  0
    2.9999   19.9093  -14.9347 C   0  0  0  0  0  0  0  0  0  0  0  0
    3.2984   20.1814  -13.4894 C   0  0  0  0  0  0  0  0  0  0  0  0
    2.9712   21.1567  -15.7246 C   0  0  0  0  0  0  0  0  0  0  0  0
  1  2  1  0
  2  3  2  0
  3  4  1  0
  4  5  2  0
  5  6  1  0
  6  7  2  0
  7  8  1  0
  8  9  2  0
  9 10  1  0
 10 11  1  0
 11 12  1  0
 12 13  2  0
 13 14  1  0
 14 15  2  0
 15 16  1  0
 16 17  1  0
 16 18  2  0
 16 19  2  0
 15 20  1  0
 20 21  2  0
 10 22  2  0
  5 23  1  0
 23 24  1  0
 24 25  1  0
 24 26  1  0
 23  2  1  0
 22  6  1  0
 21 12  1  0
M  END
$$$$
