
     RDKit          3D

 24 26  0  0  0  0  0  0  0  0999 V2000
  -19.4585   38.3474  -25.1003 O   0  0  0  0  0  0  0  0  0  0  0  0
  -19.9820   39.4246  -24.8810 C   0  0  0  0  0  0  0  0  0  0  0  0
  -20.6140   40.1576  -25.9953 C   0  0  0  0  0  0  0  0  0  0  0  0
  -21.2463   39.1438  -26.9344 C   0  0  2  0  0  0  0  0  0  0  0  0
  -20.5528   39.0012  -28.1414 N   0  0  0  0  0  0  0  0  0  0  0  0
  -20.8856   39.7911  -29.2522 C   0  0  0  0  0  0  0  0  0  0  0  0
  -22.3744   39.5545  -29.5439 C   0  0  0  0  0  0  0  0  0  0  0  0
  -23.1182   40.1078  -28.3388 C   0  0  0  0  0  0  0  0  0  0  0  0
  -22.7281   39.3938  -27.0923 C   0  0  1  0  0  0  0  0  0  0  0  0
  -23.3700   38.1558  -27.0869 O   0  0  0  0  0  0  0  0  0  0  0  0
  -19.9704   39.9556  -23.5117 C   0  0  0  0  0  0  0  0  0  0  0  0
  -18.9153   39.3912  -22.7020 N   0  0  0  0  0  0  0  0  0  0  0  0
  -17.7146   39.9720  -22.5537 C   0  0  0  0  0  0  0  0  0  0  0  0
  -16.7654   39.3786  -21.7690 N   0  0  0  0  0  0  0  0  0  0  0  0
  -16.9874   38.2182  -21.1303 C   0  0  0  0  0  0  0  0  0  0  0  0
  -16.0494   37.5888  -20.3367 C   0  0  0  0  0  0  0  0  0  0  0  0
  -16.3163   36.3862  -19.6979 C   0  0  0  0  0  0  0  0  0  0  0  0
  -14.9888   35.5338  -18.5990 Br  0  0  0  0  0  0  0  0  0  0  0  0
  -17.5507   35.8016  -19.8587 C   0  0  0  0  0  0  0  0  0  0  0  0
  -17.8376   34.2784  -19.0353 Cl  0  0  0  0  0  0  0  0  0  0  0  0
  -18.5034   36.4050  -20.6428 C   0  0  0  0  0  0  0  0  0  0  0  0
  -18.2167   37.5951  -21.2649 C   0  0  0  0  0  0  0  0  0  0  0  0
  -19.1366   38.2496  -22.0741 C   0  0  0  0  0  0  0  0  0  0  0  0
  -20.2617   37.6983  -22.2065 O   0  0  0  0  0  0  0  0  0  0  0  0
  1  2  2  0
  2  3  1  0
  4  3  1  6
  4  5  1  0
  5  6  1  0
  6  7  1  0
  7  8  1  0
  8  9  1  0
  9 10  1  6
  2 11  1  0
 11 12  1  0
 12 13  1  0
 13 14  2  0
 14 15  1  0
 15 16  2  0
 16 17  1  0
 17 18  1  0
 17 19  2  0
 19 20  1  0
 19 21  1  0
 21 22  2  0
 22 23  1  0
 23 24  2  0
  9  4  1  0
 23 12  1  0
 22 15  1  0
M  END
$$$$
