
     RDKit          3D

 27 27  0  0  0  0  0  0  0  0999 V2000
  -19.7626   31.5958  -18.8780 C   0  0  0  0  0  0  0  0  0  0  0  0
  -19.2720   32.3819  -20.0450 C   0  0  0  0  0  0  0  0  0  0  0  0
  -19.9310   32.3961  -21.2128 N   0  0  0  0  0  0  0  0  0  0  0  0
  -19.5199   33.0883  -22.2789 C   0  0  0  0  0  0  0  0  0  0  0  0
  -18.3452   33.8634  -22.2454 C   0  0  0  0  0  0  0  0  0  0  0  0
  -17.9169   34.6073  -23.4238 C   0  0  0  0  0  0  0  0  0  0  0  0
  -18.2158   36.0708  -23.2958 N   0  0  0  0  0  4  0  0  0  0  0  0
  -17.2638   36.9142  -22.8213 C   0  0  0  0  0  0  0  0  0  0  0  0
  -18.0875   38.5065  -22.9005 S   0  0  0  0  0  0  0  0  0  0  0  0
  -19.5827   37.9209  -23.5424 C   0  0  0  0  0  0  0  0  0  0  0  0
  -20.7422   38.7717  -23.8920 C   0  0  0  0  0  0  0  0  0  0  0  0
  -20.8161   39.1291  -25.3304 C   0  0  0  0  0  0  0  0  0  0  0  0
  -21.9195   39.9254  -25.6377 O   0  0  0  0  0  0  0  0  0  0  0  0
  -22.0084   40.2921  -27.2680 P   0  0  0  0  0  5  0  0  0  0  0  0
  -22.9968   39.4159  -28.0045 O   0  0  0  0  0  0  0  0  0  0  0  0
  -20.4742   39.9636  -27.9500 O   0  0  0  0  0  0  0  0  0  0  0  0
  -22.4121   41.8926  -27.5776 O   0  0  0  0  0  0  0  0  0  0  0  0
  -21.4419   42.5341  -28.8124 P   0  0  0  0  0  5  0  0  0  0  0  0
  -20.0134   42.1821  -28.4695 O   0  0  0  0  0  0  0  0  0  0  0  0
  -21.8915   41.9678  -30.3249 O   0  0  0  0  0  0  0  0  0  0  0  0
  -21.6422   44.2232  -28.7608 O   0  0  0  0  0  0  0  0  0  0  0  0
  -19.3696   36.5789  -23.6532 C   0  0  0  0  0  0  0  0  0  0  0  0
  -20.5303   35.7307  -24.1777 C   0  0  0  0  0  0  0  0  0  0  0  0
  -17.6809   33.8389  -21.0447 C   0  0  0  0  0  0  0  0  0  0  0  0
  -16.4761   34.5726  -20.9182 N   0  0  0  0  0  0  0  0  0  0  0  0
  -18.1502   33.1105  -19.9854 N   0  0  0  0  0  0  0  0  0  0  0  0
  -19.7946   36.8980  -24.0737 Cl  0  0  0  0  0 15  0  0  0  0  0  0
  1  2  1  0
  2  3  2  0
  3  4  1  0
  4  5  2  0
  5  6  1  0
  6  7  1  0
  7  8  2  0
  8  9  1  0
  9 10  1  0
 10 11  1  0
 11 12  1  0
 12 13  1  0
 13 14  1  0
 14 15  2  0
 14 16  1  0
 14 17  1  0
 17 18  1  0
 18 19  2  0
 18 20  1  0
 18 21  1  0
 10 22  2  0
 22 23  1  0
  5 24  1  0
 24 25  1  0
 24 26  2  0
 26  2  1  0
 22  7  1  0
M  CHG  2   7   1  27  -1
M  END
$$$$
