
     RDKit          3D

 19 21  0  0  0  0  0  0  0  0999 V2000
  -13.5604   17.3654  -41.0027 O   0  0  0  0  0  0  0  0  0  0  0  0
  -12.7458   18.2476  -41.5258 C   0  0  0  0  0  0  0  0  0  0  0  0
  -11.3396   18.0063  -41.3497 C   0  0  0  0  0  0  0  0  0  0  0  0
  -10.5941   17.8983  -42.5340 C   0  0  0  0  0  0  0  0  0  0  0  0
   -9.2298   17.7585  -42.5332 C   0  0  0  0  0  0  0  0  0  0  0  0
   -8.5629   17.7221  -41.3345 C   0  0  0  0  0  0  0  0  0  0  0  0
   -6.8141   17.5418  -41.3112 Cl  0  0  0  0  0  0  0  0  0  0  0  0
   -9.2990   17.8294  -40.1804 C   0  0  0  0  0  0  0  0  0  0  0  0
  -10.6583   17.9704  -40.1547 C   0  0  0  0  0  0  0  0  0  0  0  0
  -11.5324   18.1721  -38.6393 Cl  0  0  0  0  0  0  0  0  0  0  0  0
  -13.4166   19.2929  -42.1801 N   0  0  0  0  0  0  0  0  0  0  0  0
  -12.8162   20.2860  -42.8721 N   0  0  0  0  0  0  0  0  0  0  0  0
  -13.6829   21.0719  -43.4448 N   0  0  0  0  0  0  0  0  0  0  0  0
  -14.9188   20.6326  -43.1592 C   0  0  0  0  0  0  0  0  0  0  0  0
  -16.1592   21.0887  -43.5386 C   0  0  0  0  0  0  0  0  0  0  0  0
  -17.2589   20.3828  -43.1000 C   0  0  0  0  0  0  0  0  0  0  0  0
  -17.0932   19.2630  -42.3109 C   0  0  0  0  0  0  0  0  0  0  0  0
  -15.8514   18.8115  -41.9333 C   0  0  0  0  0  0  0  0  0  0  0  0
  -14.7329   19.5007  -42.3559 C   0  0  0  0  0  0  0  0  0  0  0  0
  1  2  2  0
  2  3  1  0
  3  4  2  0
  4  5  1  0
  5  6  2  0
  6  7  1  0
  6  8  1  0
  8  9  2  0
  9 10  1  0
  2 11  1  0
 11 12  1  0
 12 13  2  0
 13 14  1  0
 14 15  2  0
 15 16  1  0
 16 17  2  0
 17 18  1  0
 18 19  2  0
  9  3  1  0
 19 11  1  0
 19 14  1  0
M  END
$$$$
