
     RDKit          3D

 13 13  0  0  0  0  0  0  0  0999 V2000
  -17.0272   40.4775  -19.7370 O   0  0  0  0  0  0  0  0  0  0  0  0
  -17.8116   39.7656  -20.3985 C   0  0  0  0  0  0  0  0  0  0  0  0
  -18.9518   40.3609  -20.8998 O   0  0  0  0  0  0  0  0  0  0  0  0
  -17.6100   38.3460  -20.6809 C   0  0  0  0  0  0  0  0  0  0  0  0
  -18.3015   37.7051  -21.5996 C   0  0  0  0  0  0  0  0  0  0  0  0
  -18.1563   36.2842  -21.8646 C   0  0  0  0  0  0  0  0  0  0  0  0
  -16.9949   35.6422  -21.4261 C   0  0  0  0  0  0  0  0  0  0  0  0
  -16.7976   34.2945  -21.6471 C   0  0  0  0  0  0  0  0  0  0  0  0
  -17.7672   33.5451  -22.3198 C   0  0  0  0  0  0  0  0  0  0  0  0
  -17.5289   32.1922  -22.5211 O   0  0  0  0  0  0  0  0  0  0  0  0
  -18.9056   34.1589  -22.7532 C   0  0  0  0  0  0  0  0  0  0  0  0
  -19.8476   33.3851  -23.4177 O   0  0  0  0  0  0  0  0  0  0  0  0
  -19.0699   35.5001  -22.5170 C   0  0  0  0  0  0  0  0  0  0  0  0
  1  2  2  0
  2  3  1  0
  2  4  1  0
  4  5  2  0
  5  6  1  0
  6  7  2  0
  7  8  1  0
  8  9  2  0
  9 10  1  0
  9 11  1  0
 11 12  1  0
 11 13  2  0
 13  6  1  0
M  END
$$$$
