
     RDKit          3D

 23 25  0  0  0  0  0  0  0  0999 V2000
  -30.8138   17.3438  -27.0576 C   0  0  0  0  0  0  0  0  0  0  0  0
  -31.7516   16.6882  -26.2590 C   0  0  0  0  0  0  0  0  0  0  0  0
  -31.3795   16.0177  -25.1287 C   0  0  0  0  0  0  0  0  0  0  0  0
  -32.3270   15.3560  -24.3241 O   0  0  0  0  0  0  0  0  0  0  0  0
  -32.9745   14.2228  -24.8319 C   0  0  0  0  0  0  0  0  0  0  0  0
  -34.4361   14.2945  -24.4507 C   0  0  0  0  0  0  0  0  0  0  0  0
  -35.0856   12.9636  -24.7173 C   0  0  0  0  0  0  0  0  0  0  0  0
  -36.2896   12.7658  -23.9382 N   0  0  0  0  0  0  0  0  0  0  0  0
  -36.6198   11.3815  -23.8876 C   0  0  0  0  0  0  0  0  0  0  0  0
  -37.8927   11.0681  -23.1420 C   0  0  0  0  0  0  0  0  0  0  0  0
  -39.0160   12.0029  -23.5176 C   0  0  0  0  0  0  0  0  0  0  0  0
  -38.6038   12.9448  -24.6320 C   0  0  0  0  0  0  0  0  0  0  0  0
  -37.3287   13.6570  -24.3317 C   0  0  0  0  0  0  0  0  0  0  0  0
  -30.0527   15.9742  -24.7487 C   0  0  0  0  0  0  0  0  0  0  0  0
  -29.1234   16.6339  -25.5554 C   0  0  0  0  0  0  0  0  0  0  0  0
  -29.4826   17.3135  -26.6969 C   0  0  0  0  0  0  0  0  0  0  0  0
  -28.4463   17.9810  -27.4889 C   0  0  0  0  0  0  0  0  0  0  0  0
  -28.2310   19.3589  -27.1929 N   0  0  0  0  0  0  0  0  0  0  0  0
  -27.7400   20.1671  -28.2496 C   0  0  0  0  0  0  0  0  0  0  0  0
  -28.0466   21.6296  -28.1138 C   0  0  0  0  0  0  0  0  0  0  0  0
  -28.1357   22.1522  -26.7333 C   0  0  0  0  0  0  0  0  0  0  0  0
  -28.4303   21.1473  -25.6667 C   0  0  0  0  0  0  0  0  0  0  0  0
  -29.1730   19.9673  -26.3103 C   0  0  0  0  0  0  0  0  0  0  0  0
  1  2  2  0
  2  3  1  0
  3  4  1  0
  4  5  1  0
  5  6  1  0
  6  7  1  0
  7  8  1  0
  8  9  1  0
  9 10  1  0
 10 11  1  0
 11 12  1  0
 12 13  1  0
  3 14  2  0
 14 15  1  0
 15 16  2  0
 16 17  1  0
 17 18  1  0
 18 19  1  0
 19 20  1  0
 20 21  1  0
 21 22  1  0
 22 23  1  0
 16  1  1  0
 23 18  1  0
 13  8  1  0
M  END
$$$$
