
     RDKit          3D

 29 31  0  0  0  0  0  0  0  0999 V2000
  -23.9249   30.3804  -23.3032 C   0  0  0  0  0  0  0  0  0  0  0  0
  -22.6061   30.1813  -22.8699 O   0  0  0  0  0  0  0  0  0  0  0  0
  -21.7807   31.3038  -22.6934 C   0  0  0  0  0  0  0  0  0  0  0  0
  -22.1419   32.5540  -23.1465 C   0  0  0  0  0  0  0  0  0  0  0  0
  -21.2868   33.6055  -22.9396 C   0  0  0  0  0  0  0  0  0  0  0  0
  -20.0529   33.4781  -22.2861 C   0  0  0  0  0  0  0  0  0  0  0  0
  -19.2159   34.6468  -22.1138 C   0  0  0  0  0  0  0  0  0  0  0  0
  -19.6028   35.7024  -21.4523 C   0  0  0  0  0  0  0  0  0  0  0  0
  -18.7632   36.9075  -21.2699 C   0  0  0  0  0  0  0  0  0  0  0  0
  -18.3154   37.1962  -20.1115 O   0  0  0  0  0  0  0  0  0  0  0  0
  -18.4189   37.7793  -22.3272 N   0  0  0  0  0  0  0  0  0  0  0  0
  -18.1011   39.1450  -21.9995 C   0  0  0  0  0  0  0  0  0  0  0  0
  -17.6505   40.0977  -22.9237 N   0  0  0  0  0  0  0  0  0  0  0  0
  -17.4057   41.2747  -22.4952 C   0  0  0  0  0  0  0  0  0  0  0  0
  -17.5599   41.6359  -21.2087 C   0  0  0  0  0  0  0  0  0  0  0  0
  -17.3787   42.8304  -20.4426 C   0  0  0  0  0  0  0  0  0  0  0  0
  -16.0537   43.4776  -20.5834 C   0  0  0  0  0  0  0  0  0  0  0  0
  -15.8267   44.3034  -21.6722 C   0  0  0  0  0  0  0  0  0  0  0  0
  -14.5892   44.9048  -21.7991 C   0  0  0  0  0  0  0  0  0  0  0  0
  -13.5740   44.6977  -20.8604 C   0  0  0  0  0  0  0  0  0  0  0  0
  -13.8108   43.8773  -19.7859 C   0  0  0  0  0  0  0  0  0  0  0  0
  -12.7545   43.6333  -18.7666 C   0  0  0  0  0  0  0  0  0  0  0  0
  -13.2485   44.0082  -17.5401 F   0  0  0  0  0  0  0  0  0  0  0  0
  -11.6343   44.3777  -19.0319 F   0  0  0  0  0  0  0  0  0  0  0  0
  -12.4044   42.2844  -18.7721 F   0  0  0  0  0  0  0  0  0  0  0  0
  -15.0413   43.2797  -19.6601 C   0  0  0  0  0  0  0  0  0  0  0  0
  -18.1465   40.0213  -20.5343 S   0  0  0  0  0  0  0  0  0  0  0  0
  -19.7400   32.2100  -21.8538 C   0  0  0  0  0  0  0  0  0  0  0  0
  -20.5786   31.1268  -22.0454 C   0  0  0  0  0  0  0  0  0  0  0  0
  1  2  1  0
  2  3  1  0
  3  4  2  0
  4  5  1  0
  5  6  2  0
  6  7  1  0
  7  8  2  0
  8  9  1  0
  9 10  2  0
  9 11  1  0
 11 12  1  0
 12 13  2  0
 13 14  1  0
 14 15  2  0
 15 16  1  0
 16 17  1  0
 17 18  2  0
 18 19  1  0
 19 20  2  0
 20 21  1  0
 21 22  1  0
 22 23  1  0
 22 24  1  0
 22 25  1  0
 21 26  2  0
 15 27  1  0
  6 28  1  0
 28 29  2  0
 29  3  1  0
 27 12  1  0
 26 17  1  0
M  END
$$$$
