
     RDKit          3D

 18 18  0  0  0  0  0  0  0  0999 V2000
  -22.2704   32.0429  -21.6987 C   0  0  0  0  0  0  0  0  0  0  0  0
  -20.7868   32.1690  -21.8542 C   0  0  0  0  0  0  0  0  0  0  0  0
  -19.9988   31.0909  -21.6106 C   0  0  0  0  0  0  0  0  0  0  0  0
  -18.6358   31.2053  -21.7531 C   0  0  0  0  0  0  0  0  0  0  0  0
  -18.0654   32.4001  -22.1393 C   0  0  0  0  0  0  0  0  0  0  0  0
  -16.5865   32.4385  -22.2695 C   0  0  0  0  0  0  0  0  0  0  0  0
  -18.8551   33.5328  -22.3982 C   0  0  0  0  0  0  0  0  0  0  0  0
  -18.2276   34.6530  -22.7688 O   0  0  0  0  0  0  0  0  0  0  0  0
  -17.7563   35.7768  -22.1596 C   0  0  0  0  0  0  0  0  0  0  0  0
  -18.6416   36.9578  -22.0428 C   0  0  0  0  0  0  0  0  0  0  0  0
  -18.2283   38.1784  -22.7823 C   0  0  0  0  0  0  0  0  0  0  0  0
  -17.7600   39.3446  -22.0037 C   0  0  0  0  0  0  0  0  0  0  0  0
  -16.8901   38.7770  -20.8561 C   0  0  0  0  0  0  0  0  0  0  0  0
  -16.9245   40.3582  -22.6930 C   0  0  0  0  0  0  0  0  0  0  0  0
  -18.9156   40.0163  -21.3229 C   0  0  0  0  0  0  0  0  0  0  0  0
  -18.7686   41.1348  -20.7790 O   0  0  0  0  0  0  0  0  0  0  0  0
  -20.1331   39.3621  -21.3189 O   0  0  0  0  0  0  0  0  0  0  0  0
  -20.2003   33.3658  -22.2425 C   0  0  0  0  0  0  0  0  0  0  0  0
  1  2  1  0
  2  3  2  0
  3  4  1  0
  4  5  2  0
  5  6  1  0
  5  7  1  0
  7  8  1  0
  8  9  1  0
  9 10  1  0
 10 11  1  0
 11 12  1  0
 12 13  1  0
 12 14  1  0
 12 15  1  0
 15 16  2  0
 15 17  1  0
  7 18  2  0
 18  2  1  0
M  END
$$$$
