
     RDKit          3D

 23 25  0  0  0  0  0  0  0  0999 V2000
  -23.5805   23.4194  -43.9303 C   0  0  0  0  0  0  0  0  0  0  0  0
  -23.1439   22.5561  -42.9256 O   0  0  0  0  0  0  0  0  0  0  0  0
  -23.0496   22.9328  -41.5804 C   0  0  0  0  0  0  0  0  0  0  0  0
  -21.8226   23.0035  -40.9547 C   0  0  0  0  0  0  0  0  0  0  0  0
  -21.7317   23.3772  -39.6210 C   0  0  0  0  0  0  0  0  0  0  0  0
  -22.8426   23.6902  -38.8707 C   0  0  0  0  0  0  0  0  0  0  0  0
  -22.7760   24.0640  -37.5441 C   0  0  0  0  0  0  0  0  0  0  0  0
  -21.4461   24.1307  -36.9002 C   0  0  0  0  0  0  0  0  0  0  0  0
  -23.8765   24.3676  -36.8236 N   0  0  0  0  0  0  0  0  0  0  0  0
  -25.0609   24.2912  -37.4562 C   0  0  0  0  0  0  0  0  0  0  0  0
  -26.1200   24.5718  -36.8032 N   0  0  0  0  0  0  0  0  0  0  0  0
  -26.2882   25.6938  -35.9718 C   0  0  0  0  0  0  0  0  0  0  0  0
  -27.4886   25.9957  -35.4725 N   0  0  0  0  0  0  0  0  0  0  0  0
  -27.6760   27.0783  -34.6644 C   0  0  0  0  0  0  0  0  0  0  0  0
  -28.8366   27.2916  -34.2372 O   0  0  0  0  0  0  0  0  0  0  0  0
  -26.6164   27.8696  -34.3591 C   0  0  0  0  0  0  0  0  0  0  0  0
  -26.7924   29.0730  -33.4684 C   0  0  0  0  0  0  0  0  0  0  0  0
  -25.3713   27.5660  -34.8702 C   0  0  0  0  0  0  0  0  0  0  0  0
  -24.2395   28.4566  -34.5120 C   0  0  0  0  0  0  0  0  0  0  0  0
  -25.2453   26.4767  -35.6684 N   0  0  0  0  0  0  0  0  0  0  0  0
  -25.1579   23.9287  -38.7528 N   0  0  0  0  0  0  0  0  0  0  0  0
  -24.0728   23.6223  -39.4878 C   0  0  0  0  0  0  0  0  0  0  0  0
  -24.1591   23.2475  -40.8240 C   0  0  0  0  0  0  0  0  0  0  0  0
  1  2  1  0
  2  3  1  0
  3  4  1  0
  4  5  2  0
  5  6  1  0
  6  7  2  0
  7  8  1  0
  7  9  1  0
  9 10  1  0
 10 11  2  0
 11 12  1  0
 12 13  2  0
 13 14  1  0
 14 15  2  0
 14 16  1  0
 16 17  1  0
 16 18  2  0
 18 19  1  0
 18 20  1  0
 10 21  1  0
 21 22  2  0
 22 23  1  0
 23  3  2  0
 22  6  1  0
 20 12  1  0
M  END
$$$$
