
     RDKit          3D

 24 26  0  0  0  0  0  0  0  0999 V2000
  -18.0278   47.6025  -23.1223 O   0  0  0  0  0  0  0  0  0  0  0  0
  -18.1507   46.8592  -24.1258 C   0  0  0  0  0  0  0  0  0  0  0  0
  -18.8279   47.4003  -25.2151 O   0  0  0  0  0  0  0  0  0  0  0  0
  -17.5979   45.5037  -24.1118 C   0  0  0  0  0  0  0  0  0  0  0  0
  -17.2851   45.0647  -22.6815 C   0  0  0  0  0  0  0  0  0  0  0  0
  -18.1174   43.9303  -22.9245 N   0  0  0  0  0  0  0  0  0  0  0  0
  -18.9906   43.4864  -21.8851 C   0  0  0  0  0  0  0  0  0  0  0  0
  -18.9173   42.0062  -21.7958 C   0  0  0  0  0  0  0  0  0  0  0  0
  -18.0614   41.4144  -20.8842 C   0  0  0  0  0  0  0  0  0  0  0  0
  -17.9287   40.0552  -20.7372 C   0  0  0  0  0  0  0  0  0  0  0  0
  -18.6873   39.2392  -21.5392 C   0  0  0  0  0  0  0  0  0  0  0  0
  -18.5550   37.8724  -21.3924 O   0  0  0  0  0  0  0  0  0  0  0  0
  -18.2936   37.0395  -22.5035 C   0  0  0  0  0  0  0  0  0  0  0  0
  -18.6172   35.6380  -22.2331 C   0  0  0  0  0  0  0  0  0  0  0  0
  -19.9261   35.2317  -22.2009 C   0  0  0  0  0  0  0  0  0  0  0  0
  -20.2356   33.9130  -21.9467 C   0  0  0  0  0  0  0  0  0  0  0  0
  -19.2188   32.9773  -21.7193 C   0  0  0  0  0  0  0  0  0  0  0  0
  -19.5552   31.2987  -21.3936 Cl  0  0  0  0  0  0  0  0  0  0  0  0
  -17.9058   33.3986  -21.7544 C   0  0  0  0  0  0  0  0  0  0  0  0
  -16.6181   32.2314  -21.4701 Cl  0  0  0  0  0  0  0  0  0  0  0  0
  -17.5977   34.7391  -22.0131 C   0  0  0  0  0  0  0  0  0  0  0  0
  -19.5560   39.7702  -22.4641 C   0  0  0  0  0  0  0  0  0  0  0  0
  -19.6625   41.1562  -22.5835 C   0  0  0  0  0  0  0  0  0  0  0  0
  -18.7355   44.4721  -24.1171 C   0  0  0  0  0  0  0  0  0  0  0  0
  1  2  2  0
  2  3  1  0
  2  4  1  0
  4  5  1  0
  5  6  1  0
  6  7  1  0
  7  8  1  0
  8  9  2  0
  9 10  1  0
 10 11  2  0
 11 12  1  0
 12 13  1  0
 13 14  1  0
 14 15  2  0
 15 16  1  0
 16 17  2  0
 17 18  1  0
 17 19  1  0
 19 20  1  0
 19 21  2  0
 11 22  1  0
 22 23  2  0
  6 24  1  0
 24  4  1  0
 23  8  1  0
 21 14  1  0
M  END
$$$$
