
     RDKit          3D

 20 22  0  0  0  0  0  0  0  0999 V2000
  -20.0799   37.3735  -27.0917 C   0  0  0  0  0  0  0  0  0  0  0  0
  -19.2501   38.3749  -26.2827 C   0  0  0  0  0  0  0  0  0  0  0  0
  -20.1439   39.3420  -25.5805 C   0  0  0  0  0  0  0  0  0  0  0  0
  -19.7099   39.9120  -24.4286 O   0  0  0  0  0  0  0  0  0  0  0  0
  -19.1004   41.0366  -24.0377 C   0  0  0  0  0  0  0  0  0  0  0  0
  -19.1859   42.2251  -24.7228 C   0  0  0  0  0  0  0  0  0  0  0  0
  -18.5146   43.3065  -24.2169 C   0  0  0  0  0  0  0  0  0  0  0  0
  -17.7739   43.2521  -23.0740 C   0  0  0  0  0  0  0  0  0  0  0  0
  -17.6836   42.0453  -22.3726 C   0  0  0  0  0  0  0  0  0  0  0  0
  -18.3336   40.9622  -22.8459 C   0  0  0  0  0  0  0  0  0  0  0  0
  -18.2642   39.6686  -22.1352 C   0  0  0  0  0  0  0  0  0  0  0  0
  -18.4669   38.5541  -22.8766 N   0  0  0  0  0  0  0  0  0  0  0  0
  -18.4143   37.3666  -22.2813 C   0  0  0  0  0  0  0  0  0  0  0  0
  -18.5765   36.1049  -22.7739 N   0  0  0  0  0  0  0  0  0  0  0  0
  -18.4234   35.2597  -21.7540 N   0  0  0  0  0  0  0  0  0  0  0  0
  -18.1719   35.9519  -20.6460 N   0  0  0  0  0  0  0  0  0  0  0  0
  -18.1593   37.2663  -20.9396 C   0  0  0  0  0  0  0  0  0  0  0  0
  -17.9573   38.3986  -20.2068 C   0  0  0  0  0  0  0  0  0  0  0  0
  -17.7204   38.3437  -18.9705 O   0  0  0  0  0  0  0  0  0  0  0  0
  -18.0131   39.6224  -20.8281 N   0  0  0  0  0  0  0  0  0  0  0  0
  1  2  1  0
  2  3  1  0
  3  4  1  0
  4  5  1  0
  5  6  2  0
  6  7  1  0
  7  8  2  0
  8  9  1  0
  9 10  2  0
 10 11  1  0
 11 12  2  0
 12 13  1  0
 13 14  1  0
 14 15  2  0
 15 16  1  0
 16 17  1  0
 17 18  1  0
 18 19  2  0
 18 20  1  0
 10  5  1  0
 20 11  1  0
 17 13  2  0
M  END
$$$$
