
     RDKit          3D

 31 33  0  0  0  0  0  0  0  0999 V2000
  -25.1946   13.8533  -25.0737 C   0  0  0  0  0  0  0  0  0  0  0  0
  -24.6587   15.1418  -24.7082 N   0  0  0  0  0  0  0  0  0  0  0  0
  -25.0074   16.2652  -25.5200 C   0  0  0  0  0  0  0  0  0  0  0  0
  -24.5231   17.4755  -25.1979 N   0  0  0  0  0  0  0  0  0  0  0  0
  -24.8303   18.5445  -25.9361 C   0  0  0  0  0  0  0  0  0  0  0  0
  -25.6499   18.4069  -27.0367 C   0  0  0  0  0  0  0  0  0  0  0  0
  -25.9600   19.5161  -27.7906 C   0  0  0  0  0  0  0  0  0  0  0  0
  -26.7751   19.3678  -28.8818 C   0  0  0  0  0  0  0  0  0  0  0  0
  -27.1251   20.5092  -29.7007 C   0  0  0  0  0  0  0  0  0  0  0  0
  -26.3151   20.9714  -30.7022 C   0  0  0  0  0  0  0  0  0  0  0  0
  -26.6321   22.0759  -31.5080 C   0  0  0  0  0  0  0  0  0  0  0  0
  -25.6990   22.4126  -32.5142 N   0  0  0  0  0  0  0  0  0  0  0  0
  -24.3738   21.9933  -32.6381 C   0  0  0  0  0  0  0  0  0  0  0  0
  -23.8496   21.2761  -31.7898 O   0  0  0  0  0  0  0  0  0  0  0  0
  -23.5667   22.3862  -33.7689 N   0  0  0  0  0  0  0  0  0  0  0  0
  -24.0220   23.3768  -34.6892 C   0  0  0  0  0  0  0  0  0  0  0  0
  -22.9667   23.6772  -35.7040 C   0  0  0  0  0  0  0  0  0  0  0  0
  -23.5224   24.6714  -36.7265 C   0  0  0  0  0  0  0  0  0  0  0  0
  -22.3511   25.1642  -37.5377 C   0  0  0  0  0  0  0  0  0  0  0  0
  -24.5356   23.9259  -37.5498 C   0  0  0  0  0  0  0  0  0  0  0  0
  -24.2102   25.8319  -36.0362 C   0  0  0  0  0  0  0  0  0  0  0  0
  -27.8210   22.6823  -31.2366 C   0  0  0  0  0  0  0  0  0  0  0  0
  -28.2677   23.7452  -31.9488 F   0  0  0  0  0  0  0  0  0  0  0  0
  -28.6571   22.2077  -30.2046 C   0  0  0  0  0  0  0  0  0  0  0  0
  -28.3176   21.1262  -29.4353 C   0  0  0  0  0  0  0  0  0  0  0  0
  -29.2515   20.6813  -28.3620 C   0  0  0  0  0  0  0  0  0  0  0  0
  -27.2734   18.1436  -29.2194 C   0  0  0  0  0  0  0  0  0  0  0  0
  -28.1649   17.8931  -30.3871 C   0  0  0  0  0  0  0  0  0  0  0  0
  -26.9461   17.0834  -28.4558 N   0  0  0  0  0  0  0  0  0  0  0  0
  -26.1548   17.1706  -27.3799 C   0  0  0  0  0  0  0  0  0  0  0  0
  -25.8048   16.1445  -26.5946 N   0  0  0  0  0  0  0  0  0  0  0  0
  1  2  1  0
  2  3  1  0
  3  4  2  0
  4  5  1  0
  5  6  2  0
  6  7  1  0
  7  8  2  0
  8  9  1  0
  9 10  2  0
 10 11  1  0
 11 12  1  0
 12 13  1  0
 13 14  2  0
 13 15  1  0
 15 16  1  0
 16 17  1  0
 17 18  1  0
 18 19  1  0
 18 20  1  0
 18 21  1  0
 11 22  2  0
 22 23  1  0
 22 24  1  0
 24 25  2  0
 25 26  1  0
  8 27  1  0
 27 28  1  0
 27 29  2  0
 29 30  1  0
 30 31  2  0
 31  3  1  0
 30  6  1  0
 25  9  1  0
M  END
$$$$
