
     RDKit          3D

 34 38  0  0  0  0  0  0  0  0999 V2000
  -15.0338   17.1344  -39.6395 C   0  0  0  0  0  0  0  0  0  0  0  0
  -13.9980   17.5607  -38.7716 O   0  0  0  0  0  0  0  0  0  0  0  0
  -14.2705   17.6196  -37.4013 C   0  0  0  0  0  0  0  0  0  0  0  0
  -13.2753   17.2479  -36.5186 C   0  0  0  0  0  0  0  0  0  0  0  0
  -13.5410   17.3036  -35.1578 C   0  0  0  0  0  0  0  0  0  0  0  0
  -14.7789   17.7250  -34.7585 C   0  0  0  0  0  0  0  0  0  0  0  0
  -15.1189   17.8139  -33.3408 C   0  0  1  0  0  0  0  0  0  0  0  0
  -15.3106   19.1376  -32.9187 O   0  0  0  0  0  0  0  0  0  0  0  0
  -16.2221   16.9381  -32.9252 C   0  0  0  0  0  0  0  0  0  0  0  0
  -17.5221   17.4164  -32.9062 C   0  0  0  0  0  0  0  0  0  0  0  0
  -18.5870   16.6344  -32.5350 C   0  0  0  0  0  0  0  0  0  0  0  0
  -19.9432   17.1533  -32.5508 C   0  0  0  0  0  0  0  0  0  0  0  0
  -20.6820   17.1330  -31.3942 N   0  0  0  0  0  0  0  0  0  0  0  0
  -21.9289   17.5992  -31.3543 C   0  0  0  0  0  0  0  0  0  0  0  0
  -22.5295   18.1138  -32.4418 N   0  0  0  0  0  0  0  0  0  0  0  0
  -21.8626   18.1673  -33.6179 C   0  0  0  0  0  0  0  0  0  0  0  0
  -22.4765   18.7014  -34.7374 C   0  0  0  0  0  0  0  0  0  0  0  0
  -21.7976   18.7611  -35.9296 C   0  0  0  0  0  0  0  0  0  0  0  0
  -22.3527   19.2861  -37.1229 N   0  0  0  0  0  0  0  0  0  0  0  0
  -22.3843   18.4925  -38.3174 C   0  0  0  0  0  0  0  0  0  0  0  0
  -22.2173   19.4404  -39.4944 C   0  0  0  0  0  0  0  0  0  0  0  0
  -23.1425   20.4463  -39.5459 O   0  0  0  0  0  0  0  0  0  0  0  0
  -23.8003   20.7274  -38.3763 C   0  0  0  0  0  0  0  0  0  0  0  0
  -22.8962   20.6238  -37.1585 C   0  0  0  0  0  0  0  0  0  0  0  0
  -20.4975   18.2674  -35.9381 C   0  0  0  0  0  0  0  0  0  0  0  0
  -19.8598   17.7319  -34.8473 C   0  0  0  0  0  0  0  0  0  0  0  0
  -20.5738   17.6826  -33.6487 C   0  0  0  0  0  0  0  0  0  0  0  0
  -18.3271   15.3308  -32.1725 C   0  0  0  0  0  0  0  0  0  0  0  0
  -19.3113   14.4788  -31.7924 F   0  0  0  0  0  0  0  0  0  0  0  0
  -17.0273   14.8132  -32.1796 C   0  0  0  0  0  0  0  0  0  0  0  0
  -15.9641   15.6367  -32.5633 C   0  0  0  0  0  0  0  0  0  0  0  0
  -14.3240   15.0531  -32.5931 Cl  0  0  0  0  0  0  0  0  0  0  0  0
  -15.6931   18.0693  -35.6675 N   0  0  0  0  0  0  0  0  0  0  0  0
  -15.4473   18.0183  -36.9448 N   0  0  0  0  0  0  0  0  0  0  0  0
  1  2  1  0
  2  3  1  0
  3  4  2  0
  4  5  1  0
  5  6  2  0
  6  7  1  0
  7  8  1  6
  7  9  1  0
  9 10  2  0
 10 11  1  0
 11 12  1  0
 12 13  2  0
 13 14  1  0
 14 15  2  0
 15 16  1  0
 16 17  2  0
 17 18  1  0
 18 19  1  0
 19 20  1  0
 20 21  1  0
 21 22  1  0
 22 23  1  0
 23 24  1  0
 18 25  2  0
 25 26  1  0
 26 27  2  0
 11 28  2  0
 28 29  1  0
 28 30  1  0
 30 31  2  0
 31 32  1  0
  6 33  1  0
 33 34  2  0
 34  3  1  0
 31  9  1  0
 27 12  1  0
 27 16  1  0
 24 19  1  0
M  END
$$$$
