
     RDKit          3D

 29 31  0  0  0  0  0  0  0  0999 V2000
  -20.5709   38.4484  -19.5024 C   0  0  0  0  0  0  0  0  0  0  0  0
  -19.8502   39.3910  -20.2731 O   0  0  0  0  0  0  0  0  0  0  0  0
  -19.1542   38.9177  -21.4026 C   0  0  0  0  0  0  0  0  0  0  0  0
  -19.2089   37.6131  -21.7936 C   0  0  0  0  0  0  0  0  0  0  0  0
  -18.5521   37.0828  -22.8903 C   0  0  0  0  0  0  0  0  0  0  0  0
  -18.6130   35.6740  -23.2564 C   0  0  0  0  0  0  0  0  0  0  0  0
  -19.1639   34.7469  -22.5255 C   0  0  0  0  0  0  0  0  0  0  0  0
  -20.1702   35.0642  -21.0605 S   0  0  0  0  0  0  0  0  0  0  0  0
  -20.7146   33.3773  -20.8396 C   0  0  0  0  0  0  0  0  0  0  0  0
  -21.5851   33.0291  -20.0134 O   0  0  0  0  0  0  0  0  0  0  0  0
  -19.9726   32.6141  -21.7562 N   0  0  0  0  0  0  0  0  0  0  0  0
  -19.1628   33.3049  -22.6389 C   0  0  0  0  0  0  0  0  0  0  0  0
  -18.4342   32.7291  -23.5272 O   0  0  0  0  0  0  0  0  0  0  0  0
  -17.7951   37.9918  -23.6127 C   0  0  0  0  0  0  0  0  0  0  0  0
  -17.7158   39.3106  -23.2507 C   0  0  0  0  0  0  0  0  0  0  0  0
  -18.3770   39.8128  -22.1562 C   0  0  0  0  0  0  0  0  0  0  0  0
  -18.3692   41.0911  -21.7051 O   0  0  0  0  0  0  0  0  0  0  0  0
  -17.3559   41.9398  -21.3381 C   0  0  0  0  0  0  0  0  0  0  0  0
  -16.1754   41.3631  -20.8270 C   0  0  0  0  0  0  0  0  0  0  0  0
  -15.1256   42.1485  -20.4498 C   0  0  0  0  0  0  0  0  0  0  0  0
  -15.1393   43.5244  -20.5375 C   0  0  0  0  0  0  0  0  0  0  0  0
  -14.0403   44.3634  -20.1435 C   0  0  0  0  0  0  0  0  0  0  0  0
  -13.1583   45.0614  -19.8168 N   0  0  0  0  0  0  0  0  0  0  0  0
  -16.2978   44.0737  -21.0390 C   0  0  0  0  0  0  0  0  0  0  0  0
  -17.3908   43.3029  -21.4355 C   0  0  0  0  0  0  0  0  0  0  0  0
  -18.5437   44.0214  -22.0064 C   0  0  0  0  0  0  0  0  0  0  0  0
  -19.6764   43.8103  -21.1986 F   0  0  0  0  0  0  0  0  0  0  0  0
  -18.2788   45.3609  -22.0364 F   0  0  0  0  0  0  0  0  0  0  0  0
  -18.8322   43.5308  -23.2519 F   0  0  0  0  0  0  0  0  0  0  0  0
  1  2  1  0
  2  3  1  0
  3  4  2  0
  4  5  1  0
  5  6  1  0
  6  7  2  0
  7  8  1  0
  8  9  1  0
  9 10  2  0
  9 11  1  0
 11 12  1  0
 12 13  2  0
  5 14  2  0
 14 15  1  0
 15 16  2  0
 16 17  1  0
 17 18  1  0
 18 19  2  0
 19 20  1  0
 20 21  2  0
 21 22  1  0
 22 23  3  0
 21 24  1  0
 24 25  2  0
 25 26  1  0
 26 27  1  0
 26 28  1  0
 26 29  1  0
 16  3  1  0
 25 18  1  0
 12  7  1  0
M  END
$$$$
