
     RDKit          3D

 32 34  0  0  0  0  0  0  0  0999 V2000
  -19.4231   21.3026  -32.2286 C   0  0  0  0  0  0  0  0  0  0  0  0
  -18.7222   20.2164  -31.4330 C   0  0  0  0  0  0  0  0  0  0  0  0
  -18.0716   19.2763  -32.2795 O   0  0  0  0  0  0  0  0  0  0  0  0
  -18.7544   18.3408  -33.0188 C   0  0  0  0  0  0  0  0  0  0  0  0
  -19.6407   18.6905  -34.0458 C   0  0  0  0  0  0  0  0  0  0  0  0
  -20.3336   17.7575  -34.8033 C   0  0  0  0  0  0  0  0  0  0  0  0
  -20.1724   16.4309  -34.5677 C   0  0  0  0  0  0  0  0  0  0  0  0
  -20.9121   15.0768  -35.3743 S   0  0  0  0  0  6  0  0  0  0  0  0
  -19.8607   14.2058  -35.9716 O   0  0  0  0  0  0  0  0  0  0  0  0
  -21.5801   15.7839  -36.6249 O   0  0  0  0  0  0  0  0  0  0  0  0
  -22.0909   14.3270  -34.5081 N   0  0  0  0  0  0  0  0  0  0  0  0
  -21.8831   13.4461  -33.4318 C   0  0  0  0  0  0  0  0  0  0  0  0
  -23.0093   12.6398  -32.9218 C   0  0  0  0  0  0  0  0  0  0  0  0
  -20.7741   12.3953  -33.8539 C   0  0  0  0  0  0  0  0  0  0  0  0
  -21.2680   14.1111  -32.1756 C   0  0  0  0  0  0  0  0  0  0  0  0
  -19.2635   16.1143  -33.5188 C   0  0  0  0  0  0  0  0  0  0  0  0
  -18.5684   16.9967  -32.7638 C   0  0  0  0  0  0  0  0  0  0  0  0
  -17.6256   16.5114  -31.7302 C   0  0  0  0  0  0  0  0  0  0  0  0
  -16.5397   15.7825  -32.0557 N   0  0  0  0  0  0  0  0  0  0  0  0
  -15.6957   15.2845  -31.0936 C   0  0  0  0  0  0  0  0  0  0  0  0
  -14.5533   14.5192  -31.1077 C   0  0  0  0  0  0  0  0  0  0  0  0
  -13.8808   13.9885  -32.3329 C   0  0  0  0  0  0  0  0  0  0  0  0
  -12.5731   13.3697  -31.9794 C   0  0  0  0  0  0  0  0  0  0  0  0
  -13.6807   15.0709  -33.3703 C   0  0  0  0  0  0  0  0  0  0  0  0
  -14.7725   12.8986  -32.9377 C   0  0  0  0  0  0  0  0  0  0  0  0
  -14.1899   14.3446  -29.8376 N   0  0  0  0  0  0  0  0  0  0  0  0
  -14.9983   14.9302  -29.0124 N   0  0  0  0  0  0  0  0  0  0  0  0
  -14.8848   14.9647  -27.5663 C   0  0  0  0  0  0  0  0  0  0  0  0
  -15.9384   15.5181  -29.7623 C   0  0  0  0  0  0  0  0  0  0  0  0
  -17.0638   16.2710  -29.4548 C   0  0  0  0  0  0  0  0  0  0  0  0
  -17.2533   16.4732  -28.2402 O   0  0  0  0  0  0  0  0  0  0  0  0
  -17.8759   16.7477  -30.4265 N   0  0  0  0  0  0  0  0  0  0  0  0
  1  2  1  0
  2  3  1  0
  3  4  1  0
  4  5  2  0
  5  6  1  0
  6  7  2  0
  7  8  1  0
  8  9  2  0
  8 10  2  0
  8 11  1  0
 11 12  1  0
 12 13  1  0
 12 14  1  0
 12 15  1  0
  7 16  1  0
 16 17  2  0
 17 18  1  0
 18 19  2  0
 19 20  1  0
 20 21  1  0
 21 22  1  0
 22 23  1  0
 22 24  1  0
 22 25  1  0
 21 26  2  0
 26 27  1  0
 27 28  1  0
 27 29  1  0
 29 30  1  0
 30 31  2  0
 30 32  1  0
 17  4  1  0
 32 18  1  0
 29 20  2  0
M  END
$$$$
