
     RDKit          3D

 23 22  0  0  0  0  0  0  0  0999 V2000
    5.6605   16.8960  -16.7488 C   0  0  0  0  0  0  0  0  0  0  0  0
    5.6048   18.1031  -17.5694 N   0  0  0  0  0  0  0  0  0  0  0  0
    4.3323   18.6801  -17.7993 C   0  0  0  0  0  0  0  0  0  0  0  0
    3.5442   18.7325  -16.7872 O   0  0  0  0  0  0  0  0  0  0  0  0
    3.9266   19.1907  -19.1192 C   0  0  1  0  0  0  0  0  0  0  0  0
    2.8579   18.4543  -19.6541 N   0  0  0  0  0  0  0  0  0  0  0  0
    1.8183   17.8179  -18.9154 C   0  0  0  0  0  0  0  0  0  0  0  0
    2.0472   17.8610  -17.6514 O   0  0  0  0  0  0  0  0  0  0  0  0
    0.6290   17.1780  -19.4568 C   0  0  2  0  0  0  0  0  0  0  0  0
   -0.2078   16.4257  -18.4476 C   0  0  0  0  0  0  0  0  0  0  0  0
   -0.4633   17.2112  -17.1908 C   0  0  0  0  0  0  0  0  0  0  0  0
   -0.3034   18.6788  -17.5381 C   0  0  0  0  0  0  0  0  0  0  0  0
    0.6124   16.9106  -16.1448 C   0  0  0  0  0  0  0  0  0  0  0  0
    0.7182   16.5040  -20.7711 C   0  0  2  0  0  0  0  0  0  0  0  0
    1.6138   15.4118  -20.5992 O   0  0  0  0  0  0  0  0  0  0  0  0
    1.1901   17.2630  -21.9143 C   0  0  0  0  0  0  0  0  0  0  0  0
    2.3816   17.1633  -22.2793 O   0  0  0  0  0  0  0  0  0  0  0  0
    0.3600   18.1331  -22.6613 N   0  0  0  0  0  0  0  0  0  0  0  0
    0.8885   18.7557  -23.7386 O   0  0  0  0  0  0  0  0  0  0  0  0
    3.7407   20.6738  -18.9772 C   0  0  0  0  0  0  0  0  0  0  0  0
    2.5431   21.0571  -18.1583 C   0  0  0  0  0  0  0  0  0  0  0  0
    5.0018   21.3737  -18.5165 C   0  0  0  0  0  0  0  0  0  0  0  0
    3.4841   21.1516  -20.3958 C   0  0  0  0  0  0  0  0  0  0  0  0
  1  2  1  0
  2  3  1  0
  3  4  2  0
  3  5  1  0
  5  6  1  1
  6  7  1  0
  7  8  2  0
  7  9  1  0
  9 10  1  1
 10 11  1  0
 11 12  1  0
 11 13  1  0
  9 14  1  0
 14 15  1  1
 14 16  1  0
 16 17  2  0
 16 18  1  0
 18 19  1  0
  5 20  1  0
 20 21  1  0
 20 22  1  0
 20 23  1  0
M  END
$$$$
