
     RDKit          3D

 27 30  0  0  0  0  0  0  0  0999 V2000
  -11.8877   43.0317  -17.7574 C   0  0  0  0  0  0  0  0  0  0  0  0
  -13.0591   43.6446  -18.5028 C   0  0  0  0  0  0  0  0  0  0  0  0
  -14.0273   42.5611  -18.9202 C   0  0  0  0  0  0  0  0  0  0  0  0
  -15.2886   42.5934  -18.1134 C   0  0  0  0  0  0  0  0  0  0  0  0
  -16.6029   41.5690  -18.6893 S   0  0  0  0  0  4  0  0  0  0  0  0
  -16.2832   40.1160  -18.4558 O   0  0  0  0  0  0  0  0  0  0  0  0
  -17.1059   41.8918  -20.3645 C   0  0  0  0  0  0  0  0  0  0  0  0
  -16.9217   43.4198  -21.1590 S   0  0  0  0  0  0  0  0  0  0  0  0
  -17.6270   42.9665  -22.6811 C   0  0  0  0  0  0  0  0  0  0  0  0
  -17.8556   43.6675  -23.8521 N   0  0  0  0  0  0  0  0  0  0  0  0
  -18.4452   43.0844  -24.9126 C   0  0  0  0  0  0  0  0  0  0  0  0
  -18.6763   43.8271  -26.1217 C   0  0  0  0  0  0  0  0  0  0  0  0
  -19.1852   43.5153  -27.3465 C   0  0  0  0  0  0  0  0  0  0  0  0
  -19.2776   44.4447  -28.2966 C   0  0  0  0  0  0  0  0  0  0  0  0
  -18.8841   45.7222  -28.1140 C   0  0  0  0  0  0  0  0  0  0  0  0
  -18.2894   45.6141  -26.3339 S   0  0  0  0  0  0  0  0  0  0  0  0
  -18.8027   41.7735  -24.7728 C   0  0  0  0  0  0  0  0  0  0  0  0
  -18.5792   41.0698  -23.6155 C   0  0  0  0  0  0  0  0  0  0  0  0
  -18.9933   39.6494  -23.6597 C   0  0  0  0  0  0  0  0  0  0  0  0
  -20.3403   39.3660  -23.5668 C   0  0  0  0  0  0  0  0  0  0  0  0
  -20.8172   38.0605  -23.6325 C   0  0  0  0  0  0  0  0  0  0  0  0
  -19.9379   37.0111  -23.7941 C   0  0  0  0  0  0  0  0  0  0  0  0
  -18.5771   37.2954  -23.8884 C   0  0  0  0  0  0  0  0  0  0  0  0
  -18.1350   38.6034  -23.8198 C   0  0  0  0  0  0  0  0  0  0  0  0
  -17.9753   41.6440  -22.5067 C   0  0  0  0  0  0  0  0  0  0  0  0
  -17.7012   41.1073  -21.3108 C   0  0  0  0  0  0  0  0  0  0  0  0
  -18.0029   39.7394  -20.9225 N   0  0  0  0  0  0  0  0  0  0  0  0
  1  2  1  0
  2  3  1  0
  3  4  1  0
  4  5  1  0
  5  6  2  0
  5  7  1  0
  7  8  1  0
  8  9  1  0
  9 10  2  0
 10 11  1  0
 11 12  1  0
 12 13  2  0
 13 14  1  0
 14 15  2  0
 15 16  1  0
 11 17  2  0
 17 18  1  0
 18 19  1  0
 19 20  2  0
 20 21  1  0
 21 22  2  0
 22 23  1  0
 23 24  2  0
 18 25  2  0
 25 26  1  0
 26 27  1  0
 26  7  2  0
 25  9  1  0
 16 12  1  0
 24 19  1  0
M  END
$$$$
