
     RDKit          3D

 19 19  0  0  0  0  0  0  0  0999 V2000
  -17.0149   39.9350  -21.3219 N   0  0  0  0  0  0  0  0  0  0  0  0
  -17.5197   38.6997  -21.8067 C   0  0  0  0  0  0  0  0  0  0  0  0
  -16.9787   37.5195  -21.3259 C   0  0  0  0  0  0  0  0  0  0  0  0
  -17.4399   36.2824  -21.7704 C   0  0  0  0  0  0  0  0  0  0  0  0
  -16.8677   35.0168  -21.2597 C   0  0  0  0  0  0  0  0  0  0  0  0
  -15.6401   35.3245  -20.6588 F   0  0  0  0  0  0  0  0  0  0  0  0
  -17.6404   34.5238  -20.1982 F   0  0  0  0  0  0  0  0  0  0  0  0
  -16.6142   34.0772  -22.2045 F   0  0  0  0  0  0  0  0  0  0  0  0
  -18.4440   36.2472  -22.6972 C   0  0  0  0  0  0  0  0  0  0  0  0
  -19.0761   34.7356  -23.3066 S   0  0  0  0  0  6  0  0  0  0  0  0
  -18.9684   34.5968  -25.0015 N   0  0  0  0  0  0  0  0  0  0  0  0
  -18.2722   33.5934  -22.6928 O   0  0  0  0  0  0  0  0  0  0  0  0
  -20.4863   34.5072  -22.8071 O   0  0  0  0  0  0  0  0  0  0  0  0
  -18.9703   37.4631  -23.1638 C   0  0  0  0  0  0  0  0  0  0  0  0
  -18.5304   38.6882  -22.7391 C   0  0  0  0  0  0  0  0  0  0  0  0
  -19.2435   40.1583  -23.3740 S   0  0  0  0  0  6  0  0  0  0  0  0
  -20.9514   40.0783  -23.4156 N   0  0  0  0  0  0  0  0  0  0  0  0
  -18.8546   41.3149  -22.5022 O   0  0  0  0  0  0  0  0  0  0  0  0
  -18.6372   40.4057  -24.7273 O   0  0  0  0  0  0  0  0  0  0  0  0
  1  2  1  0
  2  3  2  0
  3  4  1  0
  4  5  1  0
  5  6  1  0
  5  7  1  0
  5  8  1  0
  4  9  2  0
  9 10  1  0
 10 11  1  0
 10 12  2  0
 10 13  2  0
  9 14  1  0
 14 15  2  0
 15 16  1  0
 16 17  1  0
 16 18  2  0
 16 19  2  0
 15  2  1  0
M  END
$$$$
