
     RDKit          3D

 14 17  0  0  0  0  0  0  0  0999 V2000
  -18.8807   36.0071  -23.5496 C   0  0  0  0  0  0  0  0  0  0  0  0
  -18.4534   37.0107  -22.5575 C   0  0  0  0  0  0  0  0  0  0  0  0
  -18.4334   38.3679  -22.3367 C   0  0  0  0  0  0  0  0  0  0  0  0
  -18.9386   39.4295  -23.2102 C   0  0  0  0  0  0  0  0  0  0  0  0
  -19.3562   39.3002  -24.4844 N   0  0  0  0  0  0  0  0  0  0  0  0
  -19.7446   40.4876  -24.9524 N   0  0  0  0  0  0  0  0  0  0  0  0
  -19.5634   41.3470  -23.9591 N   0  0  0  0  0  0  0  0  0  0  0  0
  -19.0847   40.7337  -22.9159 N   0  0  0  0  0  0  0  0  0  0  0  0
  -17.8549   38.5390  -21.1519 N   0  0  0  0  0  0  0  0  0  0  0  0
  -17.5105   37.3892  -20.6131 N   0  0  0  0  0  0  0  0  0  0  0  0
  -17.8665   36.4012  -21.4597 C   0  0  0  0  0  0  0  0  0  0  0  0
  -17.8529   34.9447  -21.6264 C   0  0  2  0  0  0  0  0  0  0  0  0
  -17.2021   34.2934  -22.7760 C   0  0  0  0  0  0  0  0  0  0  0  0
  -18.6340   34.7072  -22.8652 C   0  0  2  0  0  0  0  0  0  0  0  0
  1  2  1  0
  2  3  1  0
  3  4  1  0
  4  5  2  0
  5  6  1  0
  6  7  2  0
  7  8  1  0
  3  9  2  0
  9 10  1  0
 10 11  1  0
 11 12  1  0
 12 13  1  6
 14 13  1  6
 14  1  1  0
 11  2  2  0
 14 12  1  0
  8  4  1  0
M  END
$$$$
