
     RDKit          3D

 12 12  0  0  0  0  0  0  0  0999 V2000
  -15.6965   36.3022  -21.3910 O   0  0  0  0  0  0  0  0  0  0  0  0
  -16.8989   36.5475  -21.6921 C   0  0  0  0  0  0  0  0  0  0  0  0
  -17.2203   37.8972  -21.8414 O   0  0  0  0  0  0  0  0  0  0  0  0
  -17.8585   35.4848  -21.8649 C   0  0  0  0  0  0  0  0  0  0  0  0
  -17.4476   34.1864  -21.9493 C   0  0  0  0  0  0  0  0  0  0  0  0
  -18.3779   33.1816  -22.1146 C   0  0  0  0  0  0  0  0  0  0  0  0
  -18.0105   31.8405  -22.2064 O   0  0  0  0  0  0  0  0  0  0  0  0
  -19.7218   33.4701  -22.1961 C   0  0  0  0  0  0  0  0  0  0  0  0
  -20.6844   32.4565  -22.3647 O   0  0  0  0  0  0  0  0  0  0  0  0
  -20.1521   34.7744  -22.1126 C   0  0  0  0  0  0  0  0  0  0  0  0
  -21.5060   35.0437  -22.1966 O   0  0  0  0  0  0  0  0  0  0  0  0
  -19.1896   35.7793  -21.9448 C   0  0  0  0  0  0  0  0  0  0  0  0
  1  2  2  0
  2  3  1  0
  2  4  1  0
  4  5  2  0
  5  6  1  0
  6  7  1  0
  6  8  2  0
  8  9  1  0
  8 10  1  0
 10 11  1  0
 10 12  2  0
 12  4  1  0
M  END
$$$$
