
     RDKit          3D

 24 25  0  0  0  0  0  0  0  0999 V2000
  -24.1869   25.1442  -31.2909 N   0  0  0  0  0  0  0  0  0  0  0  0
  -24.0401   25.3347  -32.7054 C   0  0  1  0  0  0  0  0  0  0  0  0
  -23.9356   23.9680  -33.3480 C   0  0  0  0  0  0  0  0  0  0  0  0
  -23.6234   24.1359  -34.7873 C   0  0  0  0  0  0  0  0  0  0  0  0
  -22.4658   24.6812  -35.2697 C   0  0  0  0  0  0  0  0  0  0  0  0
  -22.2555   24.8005  -36.6274 C   0  0  0  0  0  0  0  0  0  0  0  0
  -20.4655   25.6433  -37.3552 I   0  0  0  0  0  0  0  0  0  0  0  0
  -23.1920   24.3803  -37.5455 C   0  0  0  0  0  0  0  0  0  0  0  0
  -23.0455   24.4699  -38.8983 O   0  0  0  0  0  0  0  0  0  0  0  0
  -22.4083   23.6042  -39.7238 C   0  0  0  0  0  0  0  0  0  0  0  0
  -21.8515   24.0509  -40.8958 C   0  0  0  0  0  0  0  0  0  0  0  0
  -21.1892   23.1915  -41.7688 C   0  0  0  0  0  0  0  0  0  0  0  0
  -20.3485   23.9152  -43.5569 I   0  0  0  0  0  0  0  0  0  0  0  0
  -21.0757   21.8491  -41.4707 C   0  0  0  0  0  0  0  0  0  0  0  0
  -20.4120   20.9732  -42.3401 O   0  0  0  0  0  0  0  0  0  0  0  0
  -21.6396   21.4118  -40.2894 C   0  0  0  0  0  0  0  0  0  0  0  0
  -21.4789   19.3731  -39.8157 I   0  0  0  0  0  0  0  0  0  0  0  0
  -22.3016   22.2717  -39.4172 C   0  0  0  0  0  0  0  0  0  0  0  0
  -24.3610   23.8296  -37.0506 C   0  0  0  0  0  0  0  0  0  0  0  0
  -25.8521   23.1582  -38.3655 I   0  0  0  0  0  0  0  0  0  0  0  0
  -24.5796   23.7065  -35.7014 C   0  0  0  0  0  0  0  0  0  0  0  0
  -25.1688   26.0710  -33.3067 C   0  0  0  0  0  0  0  0  0  0  0  0
  -24.9638   27.1395  -33.9278 O   0  0  0  0  0  0  0  0  0  0  0  0
  -26.4701   25.6035  -33.2004 O   0  0  0  0  0  0  0  0  0  0  0  0
  2  1  1  1
  2  3  1  0
  3  4  1  0
  4  5  2  0
  5  6  1  0
  6  7  1  0
  6  8  2  0
  8  9  1  0
  9 10  1  0
 10 11  2  0
 11 12  1  0
 12 13  1  0
 12 14  2  0
 14 15  1  0
 14 16  1  0
 16 17  1  0
 16 18  2  0
  8 19  1  0
 19 20  1  0
 19 21  2  0
  2 22  1  0
 22 23  2  0
 22 24  1  0
 21  4  1  0
 18 10  1  0
M  END
$$$$
