
     RDKit          3D

 22 23  0  0  0  0  0  0  0  0999 V2000
  -24.8264   16.6146  -22.1928 C   0  0  0  0  0  0  0  0  0  0  0  0
  -25.0279   17.6575  -23.1336 O   0  0  0  0  0  0  0  0  0  0  0  0
  -25.9338   17.4864  -24.1745 C   0  0  0  0  0  0  0  0  0  0  0  0
  -26.6674   16.3367  -24.3541 C   0  0  0  0  0  0  0  0  0  0  0  0
  -27.5557   16.2171  -25.4064 C   0  0  0  0  0  0  0  0  0  0  0  0
  -27.7404   17.2404  -26.3130 C   0  0  0  0  0  0  0  0  0  0  0  0
  -27.0033   18.3748  -26.1190 C   0  0  0  0  0  0  0  0  0  0  0  0
  -26.1040   18.5255  -25.0730 C   0  0  0  0  0  0  0  0  0  0  0  0
  -27.1534   19.5092  -27.0523 C   0  0  0  0  0  0  0  0  0  0  0  0
  -28.4414   19.5521  -27.6908 N   0  0  0  0  0  0  0  0  0  0  0  0
  -28.3377   20.5121  -28.7787 C   0  0  0  0  0  0  0  0  0  0  0  0
  -28.8902   18.3249  -28.2357 C   0  0  0  0  0  0  0  0  0  0  0  0
  -28.6903   17.1047  -27.4340 C   0  0  0  0  0  0  0  0  0  0  0  0
  -29.9864   16.4930  -26.9657 C   0  0  0  0  0  0  0  0  0  0  0  0
  -30.2173   15.1326  -27.0067 C   0  0  0  0  0  0  0  0  0  0  0  0
  -31.4147   14.5795  -26.5716 C   0  0  0  0  0  0  0  0  0  0  0  0
  -32.4077   15.3796  -26.0855 C   0  0  0  0  0  0  0  0  0  0  0  0
  -33.9132   14.6390  -25.5430 Cl  0  0  0  0  0  0  0  0  0  0  0  0
  -32.2062   16.7339  -26.0331 C   0  0  0  0  0  0  0  0  0  0  0  0
  -33.4996   17.7358  -25.4040 Cl  0  0  0  0  0  0  0  0  0  0  0  0
  -31.0084   17.2751  -26.4695 C   0  0  0  0  0  0  0  0  0  0  0  0
  -28.9763   17.2903  -26.4498 Cl  0  0  0  0  0  0  0  0  0  0  0  0
  1  2  1  0
  2  3  1  0
  3  4  2  0
  4  5  1  0
  5  6  2  0
  6  7  1  0
  7  8  2  0
  7  9  1  0
  9 10  1  0
 10 11  1  0
 10 12  1  0
 12 13  1  0
 13 14  1  0
 14 15  2  0
 15 16  1  0
 16 17  2  0
 17 18  1  0
 17 19  1  0
 19 20  1  0
 19 21  2  0
  8  3  1  0
 21 14  1  0
 13  6  1  0
M  END
$$$$
