
     RDKit          3D

 26 28  0  0  0  0  0  0  0  0999 V2000
  -15.9941   16.9832  -34.8038 O   0  0  0  0  0  0  0  0  0  0  0  0
  -15.6267   17.0563  -33.6215 N   0  0  0  0  0  4  0  0  0  0  0  0
  -15.5761   18.2619  -33.0151 O   0  0  0  0  0  1  0  0  0  0  0  0
  -15.2727   15.8731  -32.9456 C   0  0  0  0  0  0  0  0  0  0  0  0
  -14.1628   15.1682  -33.3830 C   0  0  0  0  0  0  0  0  0  0  0  0
  -13.7909   13.9954  -32.7680 C   0  0  0  0  0  0  0  0  0  0  0  0
  -12.3951   13.0742  -33.2900 Cl  0  0  0  0  0  0  0  0  0  0  0  0
  -14.5422   13.5245  -31.7011 C   0  0  0  0  0  0  0  0  0  0  0  0
  -15.6359   14.2404  -31.2867 C   0  0  0  0  0  0  0  0  0  0  0  0
  -16.0275   15.4323  -31.8988 C   0  0  0  0  0  0  0  0  0  0  0  0
  -17.4097   16.2369  -31.2542 S   0  0  0  0  0  6  0  0  0  0  0  0
  -17.8095   15.5798  -29.9294 O   0  0  0  0  0  0  0  0  0  0  0  0
  -17.0596   17.6476  -30.8958 O   0  0  0  0  0  0  0  0  0  0  0  0
  -18.7619   16.2248  -32.3224 N   0  0  0  0  0  0  0  0  0  0  0  0
  -18.4901   17.2152  -33.3687 C   0  0  0  0  0  0  0  0  0  0  0  0
  -19.4383   17.0350  -34.5359 C   0  0  0  0  0  0  0  0  0  0  0  0
  -20.4561   16.1113  -34.1514 N   0  0  0  0  0  0  0  0  0  0  0  0
  -21.6544   16.1657  -34.9189 C   0  0  0  0  0  0  0  0  0  0  0  0
  -22.2984   14.8705  -35.1640 C   0  0  0  0  0  0  0  0  0  0  0  0
  -21.8738   14.0317  -36.1724 C   0  0  0  0  0  0  0  0  0  0  0  0
  -22.4614   12.8113  -36.4226 C   0  0  0  0  0  0  0  0  0  0  0  0
  -23.5199   12.3693  -35.6597 C   0  0  0  0  0  0  0  0  0  0  0  0
  -23.9601   13.1928  -34.6462 C   0  0  0  0  0  0  0  0  0  0  0  0
  -23.3582   14.4234  -34.4033 C   0  0  0  0  0  0  0  0  0  0  0  0
  -19.9137   14.8024  -33.9574 C   0  0  0  0  0  0  0  0  0  0  0  0
  -18.7457   14.9184  -32.9995 C   0  0  0  0  0  0  0  0  0  0  0  0
  1  2  2  0
  2  3  1  0
  2  4  1  0
  4  5  2  0
  5  6  1  0
  6  7  1  0
  6  8  2  0
  8  9  1  0
  9 10  2  0
 10 11  1  0
 11 12  2  0
 11 13  2  0
 11 14  1  0
 14 15  1  0
 15 16  1  0
 16 17  1  0
 17 18  1  0
 18 19  1  0
 19 20  2  0
 20 21  1  0
 21 22  2  0
 22 23  1  0
 23 24  2  0
 17 25  1  0
 25 26  1  0
 10  4  1  0
 26 14  1  0
 24 19  1  0
M  CHG  2   2   1   3  -1
M  END
$$$$
