
     RDKit          3D

 52 55  0  0  0  0  0  0  0  0999 V2000
  -15.6346   22.3347  -45.0025 C   0  0  0  0  0  0  0  0  0  0  0  0
  -16.9634   21.9322  -45.5261 C   0  0  0  0  0  0  0  0  0  0  0  0
  -16.8049   21.2175  -46.8699 C   0  0  0  0  0  0  0  0  0  0  0  0
  -17.7654   21.0196  -44.6430 C   0  0  0  0  0  0  0  0  0  0  0  0
  -17.0265   20.1652  -43.7064 C   0  0  2  0  0  0  0  0  0  0  0  0
  -15.8130   19.5172  -44.1460 N   0  0  0  0  0  0  0  0  0  0  0  0
  -14.7123   19.3153  -43.2843 C   0  0  0  0  0  0  0  0  0  0  0  0
  -14.8934   19.7951  -42.0810 O   0  0  0  0  0  0  0  0  0  0  0  0
  -13.4310   18.6440  -43.5589 C   0  0  2  0  0  0  0  0  0  0  0  0
  -12.2432   19.2320  -42.8833 C   0  0  0  0  0  0  0  0  0  0  0  0
  -12.1402   19.2945  -41.4225 C   0  0  0  0  0  0  0  0  0  0  0  0
  -11.0153   18.5902  -40.8012 C   0  0  0  0  0  0  0  0  0  0  0  0
  -10.9749   17.2847  -40.4707 C   0  0  0  0  0  0  0  0  0  0  0  0
   -9.8757   16.6847  -39.9067 C   0  0  0  0  0  0  0  0  0  0  0  0
   -8.7533   17.4126  -39.6534 C   0  0  0  0  0  0  0  0  0  0  0  0
   -8.7404   18.7426  -39.9686 C   0  0  0  0  0  0  0  0  0  0  0  0
   -9.8436   19.3294  -40.5311 C   0  0  0  0  0  0  0  0  0  0  0  0
  -13.2034   18.2401  -44.9106 N   0  0  0  0  0  0  0  0  0  0  0  0
  -13.9453   17.1439  -45.4966 C   0  0  0  0  0  0  0  0  0  0  0  0
  -14.6963   16.5018  -44.7158 O   0  0  0  0  0  0  0  0  0  0  0  0
  -13.8501   16.7668  -46.9213 C   0  0  0  0  0  0  0  0  0  0  0  0
  -15.0834   16.2645  -47.4259 N   0  0  0  0  0  0  0  0  0  0  0  0
  -15.0437   14.9457  -47.9782 C   0  0  0  0  0  0  0  0  0  0  0  0
  -14.3851   15.0408  -49.3583 C   0  0  0  0  0  0  0  0  0  0  0  0
  -15.2979   15.7490  -50.1413 O   0  0  0  0  0  0  0  0  0  0  0  0
  -15.4522   17.0296  -49.6776 C   0  0  0  0  0  0  0  0  0  0  0  0
  -15.8597   17.1430  -48.2309 C   0  0  0  0  0  0  0  0  0  0  0  0
  -17.9096   19.1837  -42.9825 C   0  0  0  0  0  0  0  0  0  0  0  0
  -18.8434   18.6582  -43.6198 O   0  0  0  0  0  0  0  0  0  0  0  0
  -17.6558   18.8879  -41.6349 N   0  0  0  0  0  0  0  0  0  0  0  0
  -18.7204   18.3968  -40.7038 C   0  0  1  0  0  0  0  0  0  0  0  0
  -18.0541   17.5195  -39.6962 C   0  0  0  0  0  0  0  0  0  0  0  0
  -16.7144   17.8151  -39.2638 C   0  0  0  0  0  0  0  0  0  0  0  0
  -15.8111   16.7788  -39.1115 C   0  0  0  0  0  0  0  0  0  0  0  0
  -14.4867   17.0373  -38.7579 C   0  0  0  0  0  0  0  0  0  0  0  0
  -14.0495   18.3221  -38.5534 C   0  0  0  0  0  0  0  0  0  0  0  0
  -14.9457   19.3554  -38.7038 C   0  0  0  0  0  0  0  0  0  0  0  0
  -16.2697   19.0987  -39.0569 C   0  0  0  0  0  0  0  0  0  0  0  0
  -19.3338   19.5811  -40.1307 C   0  0  0  0  0  0  0  0  0  0  0  0
  -19.7169   19.6084  -38.8974 O   0  0  0  0  0  0  0  0  0  0  0  0
  -19.5908   20.8310  -40.8029 N   0  0  0  0  0  0  0  0  0  0  0  0
  -20.0676   21.9766  -40.0699 C   0  0  1  0  0  0  0  0  0  0  0  0
  -19.1124   22.6033  -39.1242 C   0  0  0  0  0  0  0  0  0  0  0  0
  -19.5785   22.9967  -37.7682 C   0  0  0  0  0  0  0  0  0  0  0  0
  -18.5332   24.0050  -37.1750 C   0  0  0  0  0  0  0  0  0  0  0  0
  -20.8950   23.7341  -37.8154 C   0  0  0  0  0  0  0  0  0  0  0  0
  -20.4666   23.0443  -41.0585 C   0  0  0  0  0  0  0  0  0  0  0  0
  -21.0194   24.0576  -40.7011 O   0  0  0  0  0  0  0  0  0  0  0  0
  -20.1920   22.8964  -42.5002 C   0  0  1  0  0  0  0  0  0  0  0  0
  -19.1619   21.9295  -42.9925 C   0  0  0  0  0  0  0  0  0  0  0  0
  -21.3012   23.2622  -43.4673 C   0  0  0  0  0  0  0  0  0  0  0  0
  -20.2705   24.1467  -43.2461 O   0  0  0  0  0  0  0  0  0  0  0  0
  1  2  1  0
  2  3  1  0
  2  4  1  0
  5  4  1  6
  5  6  1  0
  6  7  1  0
  7  8  2  0
  7  9  1  0
  9 10  1  6
 10 11  1  0
 11 12  1  0
 12 13  2  0
 13 14  1  0
 14 15  2  0
 15 16  1  0
 16 17  2  0
  9 18  1  0
 18 19  1  0
 19 20  2  0
 19 21  1  0
 21 22  1  0
 22 23  1  0
 23 24  1  0
 24 25  1  0
 25 26  1  0
 26 27  1  0
  5 28  1  0
 28 29  2  0
 28 30  1  0
 30 31  1  0
 31 32  1  1
 32 33  1  0
 33 34  2  0
 34 35  1  0
 35 36  2  0
 36 37  1  0
 37 38  2  0
 31 39  1  0
 39 40  2  0
 39 41  1  0
 41 42  1  0
 42 43  1  1
 43 44  1  0
 44 45  1  0
 44 46  1  0
 42 47  1  0
 47 48  2  0
 47 49  1  0
 49 50  1  1
 49 51  1  0
 51 52  1  0
 17 12  1  0
 27 22  1  0
 38 33  1  0
 52 49  1  0
M  END
$$$$
