
     RDKit          3D

 34 37  0  0  0  0  0  0  0  0999 V2000
  -30.6603   22.5478  -31.9724 C   0  0  0  0  0  0  0  0  0  0  0  0
  -29.7203   22.7647  -30.9377 O   0  0  0  0  0  0  0  0  0  0  0  0
  -29.0752   21.6883  -30.3054 C   0  0  0  0  0  0  0  0  0  0  0  0
  -29.2720   20.3923  -30.7102 C   0  0  0  0  0  0  0  0  0  0  0  0
  -28.6325   19.3790  -30.0756 C   0  0  0  0  0  0  0  0  0  0  0  0
  -27.7665   19.5867  -29.0103 C   0  0  0  0  0  0  0  0  0  0  0  0
  -27.1067   18.4037  -28.4138 C   0  0  0  0  0  0  0  0  0  0  0  0
  -27.1970   18.3631  -26.9594 N   0  0  0  0  0  0  0  0  0  0  0  0
  -28.3850   18.0764  -26.2614 C   0  0  0  0  0  0  0  0  0  0  0  0
  -29.5507   17.9866  -26.9510 N   0  0  0  0  0  0  0  0  0  0  0  0
  -30.7407   17.7540  -26.4074 C   0  0  0  0  0  0  0  0  0  0  0  0
  -31.9486   17.6761  -27.1928 N   0  0  0  0  0  0  0  0  0  0  0  0
  -33.2906   17.4173  -26.7303 C   0  0  0  0  0  0  0  0  0  0  0  0
  -34.0406   16.8941  -27.9145 C   0  0  0  0  0  0  0  0  0  0  0  0
  -33.0015   16.7769  -29.0338 C   0  0  0  0  0  0  0  0  0  0  0  0
  -32.0235   17.8515  -28.6207 C   0  0  1  0  0  0  0  0  0  0  0  0
  -32.5819   19.2092  -28.9884 C   0  0  0  0  0  0  0  0  0  0  0  0
  -31.9484   20.2304  -28.2708 O   0  0  0  0  0  0  0  0  0  0  0  0
  -30.7732   17.5987  -25.0768 N   0  0  0  0  0  0  0  0  0  0  0  0
  -29.6711   17.6716  -24.3222 C   0  0  0  0  0  0  0  0  0  0  0  0
  -28.4101   17.9170  -24.8897 C   0  0  0  0  0  0  0  0  0  0  0  0
  -27.2449   17.9635  -24.0445 C   0  0  0  0  0  0  0  0  0  0  0  0
  -27.0172   18.9048  -23.2611 O   0  0  0  0  0  0  0  0  0  0  0  0
  -26.2980   16.9194  -24.0746 N   0  0  0  0  0  0  0  0  0  0  0  0
  -26.2435   16.0014  -22.9410 C   0  0  0  0  0  0  0  0  0  0  0  0
  -24.9565   15.2882  -23.0045 C   0  0  0  0  0  0  0  0  0  0  0  0
  -24.6896   14.3923  -22.0176 N   0  0  0  0  0  0  0  0  0  0  0  0
  -23.5160   13.7202  -22.0434 C   0  0  0  0  0  0  0  0  0  0  0  0
  -22.5897   13.9239  -23.0447 C   0  0  0  0  0  0  0  0  0  0  0  0
  -22.9262   14.8566  -24.0261 C   0  0  0  0  0  0  0  0  0  0  0  0
  -24.0991   15.5253  -23.9963 N   0  0  0  0  0  0  0  0  0  0  0  0
  -27.5664   20.8775  -28.6032 C   0  0  0  0  0  0  0  0  0  0  0  0
  -28.2295   21.9148  -29.2626 C   0  0  0  0  0  0  0  0  0  0  0  0
  -27.9615   23.5646  -28.7297 Cl  0  0  0  0  0  0  0  0  0  0  0  0
  1  2  1  0
  2  3  1  0
  3  4  2  0
  4  5  1  0
  5  6  2  0
  6  7  1  0
  7  8  1  0
  8  9  1  0
  9 10  2  0
 10 11  1  0
 11 12  1  0
 12 13  1  0
 13 14  1  0
 14 15  1  0
 15 16  1  0
 16 17  1  1
 17 18  1  0
 11 19  2  0
 19 20  1  0
 20 21  2  0
 21 22  1  0
 22 23  2  0
 22 24  1  0
 24 25  1  0
 25 26  1  0
 26 27  2  0
 27 28  1  0
 28 29  2  0
 29 30  1  0
 30 31  2  0
  6 32  1  0
 32 33  2  0
 33 34  1  0
 33  3  1  0
 21  9  1  0
 31 26  1  0
 16 12  1  0
M  END
$$$$
