
     RDKit          3D

 28 31  0  0  0  0  0  0  0  0999 V2000
  -35.0949   15.3624  -26.0293 N   0  0  0  0  0  0  0  0  0  0  0  0
  -34.1843   16.0605  -25.8333 C   0  0  0  0  0  0  0  0  0  0  0  0
  -33.0565   16.9127  -25.6066 C   0  0  0  0  0  0  0  0  0  0  0  0
  -31.8496   16.5073  -26.2717 C   0  0  0  0  0  0  0  0  0  0  0  0
  -30.7872   17.3467  -26.2865 C   0  0  0  0  0  0  0  0  0  0  0  0
  -30.6567   18.6045  -25.7260 C   0  0  0  0  0  0  0  0  0  0  0  0
  -29.5842   19.4572  -25.9516 N   0  0  0  0  0  0  0  0  0  0  0  0
  -28.3252   18.8511  -26.4760 C   0  0  0  0  0  0  0  0  0  0  0  0
  -28.3252   17.6303  -26.6644 O   0  0  0  0  0  0  0  0  0  0  0  0
  -27.2633   19.7505  -26.7295 N   0  0  0  0  0  0  0  0  0  0  0  0
  -25.9059   19.1042  -26.7318 C   0  0  0  0  0  0  0  0  0  0  0  0
  -25.6585   18.7965  -28.1839 C   0  0  0  0  0  0  0  0  0  0  0  0
  -25.7702   19.7486  -29.1548 C   0  0  0  0  0  0  0  0  0  0  0  0
  -25.6731   19.1444  -30.3374 N   0  0  0  0  0  0  0  0  0  0  0  0
  -25.4841   17.8137  -30.0520 C   0  0  0  0  0  0  0  0  0  0  0  0
  -25.2425   16.3021  -30.8758 S   0  0  0  0  0  0  0  0  0  0  0  0
  -25.1047   15.3380  -29.4417 C   0  0  0  0  0  0  0  0  0  0  0  0
  -25.2601   16.2961  -28.3901 C   0  0  0  0  0  0  0  0  0  0  0  0
  -24.9227   15.7519  -27.0480 C   0  0  0  0  0  0  0  0  0  0  0  0
  -25.6355   16.2029  -25.8965 C   0  0  0  0  0  0  0  0  0  0  0  0
  -25.3955   15.6100  -24.7081 C   0  0  0  0  0  0  0  0  0  0  0  0
  -24.4959   14.5816  -24.4844 C   0  0  0  0  0  0  0  0  0  0  0  0
  -24.2137   13.7837  -22.7629 Br  0  0  0  0  0  0  0  0  0  0  0  0
  -23.7789   14.1224  -25.6000 C   0  0  0  0  0  0  0  0  0  0  0  0
  -24.0385   14.7430  -26.8286 C   0  0  0  0  0  0  0  0  0  0  0  0
  -25.4584   17.5376  -28.7745 N   0  0  0  0  0  0  0  0  0  0  0  0
  -31.8923   18.9724  -25.0457 C   0  0  0  0  0  0  0  0  0  0  0  0
  -32.9656   18.1379  -25.0302 C   0  0  0  0  0  0  0  0  0  0  0  0
  1  2  3  0
  2  3  1  0
  3  4  2  0
  4  5  1  0
  5  6  2  0
  6  7  1  0
  7  8  1  0
  8  9  2  0
  8 10  1  0
 10 11  1  0
 11 12  1  0
 12 13  2  0
 13 14  1  0
 14 15  2  0
 15 16  1  0
 16 17  1  0
 17 18  2  0
 18 19  1  0
 19 20  2  0
 20 21  1  0
 21 22  2  0
 22 23  1  0
 22 24  1  0
 24 25  2  0
 18 26  1  0
  6 27  1  0
 27 28  2  0
 28  3  1  0
 26 12  1  0
 26 15  1  0
 25 19  1  0
M  END
$$$$
