
     RDKit          3D

 21 23  0  0  0  0  0  0  0  0999 V2000
  -18.2181   32.4923  -21.7940 C   0  0  0  0  0  0  0  0  0  0  0  0
  -18.3013   33.9606  -22.0168 C   0  0  0  0  0  0  0  0  0  0  0  0
  -17.3707   34.8211  -21.4749 C   0  0  0  0  0  0  0  0  0  0  0  0
  -17.4074   36.1809  -21.6529 C   0  0  0  0  0  0  0  0  0  0  0  0
  -18.4224   36.7739  -22.4160 C   0  0  0  0  0  0  0  0  0  0  0  0
  -18.4418   38.2082  -22.6342 C   0  0  0  0  0  0  0  0  0  0  0  0
  -18.6133   38.8491  -23.7992 N   0  0  0  0  0  0  0  0  0  0  0  0
  -18.5581   40.1456  -23.6658 N   0  0  0  0  0  0  0  0  0  0  0  0
  -18.6967   41.1815  -24.6859 C   0  0  0  0  0  0  0  0  0  0  0  0
  -19.9550   41.9575  -24.3742 C   0  0  0  0  0  0  0  0  0  0  0  0
  -17.5363   42.1236  -24.5900 C   0  0  0  0  0  0  0  0  0  0  0  0
  -18.8519   40.5753  -26.0509 C   0  0  0  0  0  0  0  0  0  0  0  0
  -18.3402   40.3985  -22.3626 C   0  0  0  0  0  0  0  0  0  0  0  0
  -18.1847   41.5133  -21.6316 N   0  0  0  0  0  0  0  0  0  0  0  0
  -17.9613   41.4716  -20.3068 C   0  0  0  0  0  0  0  0  0  0  0  0
  -17.8821   40.3050  -19.6474 N   0  0  0  0  0  0  0  0  0  0  0  0
  -18.0310   39.1353  -20.3286 C   0  0  0  0  0  0  0  0  0  0  0  0
  -17.9173   37.8925  -19.6224 N   0  0  0  0  0  0  0  0  0  0  0  0
  -18.2608   39.1761  -21.6802 C   0  0  0  0  0  0  0  0  0  0  0  0
  -19.3480   35.9070  -22.9552 C   0  0  0  0  0  0  0  0  0  0  0  0
  -19.3002   34.5391  -22.7680 C   0  0  0  0  0  0  0  0  0  0  0  0
  1  2  1  0
  2  3  2  0
  3  4  1  0
  4  5  2  0
  5  6  1  0
  6  7  2  0
  7  8  1  0
  8  9  1  0
  9 10  1  0
  9 11  1  0
  9 12  1  0
  8 13  1  0
 13 14  2  0
 14 15  1  0
 15 16  2  0
 16 17  1  0
 17 18  1  0
 17 19  2  0
  5 20  1  0
 20 21  2  0
 21  2  1  0
 19  6  1  0
 19 13  1  0
M  END
$$$$
