
     RDKit          3D

 24 27  0  0  0  0  0  0  0  0999 V2000
    0.3924   16.4389  -17.3428 N   0  0  0  0  0  0  0  0  0  0  0  0
   -0.6028   16.4698  -18.3317 C   0  0  0  0  0  0  0  0  0  0  0  0
   -1.6204   15.7527  -18.2506 O   0  0  0  0  0  0  0  0  0  0  0  0
   -0.4608   17.3606  -19.4966 C   0  0  0  0  0  0  0  0  0  0  0  0
   -1.2383   17.1927  -20.6233 C   0  0  0  0  0  0  0  0  0  0  0  0
   -1.1058   18.0299  -21.7199 C   0  0  0  0  0  0  0  0  0  0  0  0
   -0.1799   19.0668  -21.7121 C   0  0  0  0  0  0  0  0  0  0  0  0
    0.5984   19.2470  -20.6038 C   0  0  0  0  0  0  0  0  0  0  0  0
    1.5792   20.1722  -20.3196 C   0  0  0  0  0  0  0  0  0  0  0  0
    2.0093   19.8787  -19.0806 N   0  0  0  0  0  0  0  0  0  0  0  0
    3.0228   20.5756  -18.3739 C   0  0  0  0  0  0  0  0  0  0  0  0
    3.3588   21.8895  -18.6693 C   0  0  0  0  0  0  0  0  0  0  0  0
    4.3361   22.5624  -17.9884 C   0  0  0  0  0  0  0  0  0  0  0  0
    5.0118   21.9111  -16.9714 C   0  0  0  0  0  0  0  0  0  0  0  0
    6.0821   22.5834  -16.1940 C   0  0  2  0  0  0  0  0  0  0  0  0
    5.6118   22.9896  -14.8120 C   0  0  0  0  0  0  0  0  0  0  0  0
    6.8366   23.5745  -14.1330 C   0  0  0  0  0  0  0  0  0  0  0  0
    7.2521   24.7912  -14.8748 C   0  0  0  0  0  0  0  0  0  0  0  0
    7.3215   24.7183  -16.2649 N   0  0  0  0  0  0  0  0  0  0  0  0
    6.5746   23.7639  -16.9648 C   0  0  0  0  0  0  0  0  0  0  0  0
    4.7029   20.6050  -16.6518 C   0  0  0  0  0  0  0  0  0  0  0  0
    3.7157   19.9469  -17.3503 C   0  0  0  0  0  0  0  0  0  0  0  0
    1.3450   18.8331  -18.6054 N   0  0  0  0  0  0  0  0  0  0  0  0
    0.4526   18.3932  -19.5044 C   0  0  0  0  0  0  0  0  0  0  0  0
  1  2  1  0
  2  3  2  0
  2  4  1  0
  4  5  2  0
  5  6  1  0
  6  7  2  0
  7  8  1  0
  8  9  2  0
  9 10  1  0
 10 11  1  0
 11 12  2  0
 12 13  1  0
 13 14  2  0
 15 14  1  6
 15 16  1  0
 16 17  1  0
 17 18  1  0
 18 19  1  0
 19 20  1  0
 14 21  1  0
 21 22  2  0
 10 23  1  0
 23 24  2  0
 24  4  1  0
 24  8  1  0
 22 11  1  0
 20 15  1  0
M  END
$$$$
