
     RDKit          3D

 23 26  0  0  0  0  0  0  0  0999 V2000
  -24.5615   27.4407  -35.8619 C   0  0  0  0  0  0  0  0  0  0  0  0
  -24.8281   25.9822  -35.9740 C   0  0  0  0  0  0  0  0  0  0  0  0
  -25.9686   25.6103  -35.8127 O   0  0  0  0  0  0  0  0  0  0  0  0
  -23.7274   25.0582  -36.2697 C   0  0  1  0  0  0  0  0  0  0  0  0
  -23.9180   23.8065  -35.4051 C   0  0  0  0  0  0  0  0  0  0  0  0
  -23.6781   22.6300  -36.3281 C   0  0  0  0  0  0  0  0  0  0  0  0
  -22.9056   23.2560  -37.4296 C   0  0  1  0  0  0  0  0  0  0  0  0
  -22.7368   22.5088  -38.6765 C   0  0  2  0  0  0  0  0  0  0  0  0
  -22.1171   21.1340  -38.4757 C   0  0  0  0  0  0  0  0  0  0  0  0
  -22.3032   20.4288  -39.8153 C   0  0  0  0  0  0  0  0  0  0  0  0
  -21.4547   21.1914  -40.7656 C   0  0  0  0  0  0  0  0  0  0  0  0
  -20.7806   20.4913  -41.6604 C   0  0  0  0  0  0  0  0  0  0  0  0
  -19.9130   21.1370  -42.6458 C   0  0  0  0  0  0  0  0  0  0  0  0
  -19.6436   20.6468  -43.7612 O   0  0  0  0  0  0  0  0  0  0  0  0
  -19.3260   22.4470  -42.2892 C   0  0  0  0  0  0  0  0  0  0  0  0
  -19.8819   23.0101  -41.0183 C   0  0  0  0  0  0  0  0  0  0  0  0
  -21.3217   22.6493  -40.7729 C   0  0  1  0  0  0  0  0  0  0  0  0
  -22.1415   23.1589  -41.9675 C   0  0  0  0  0  0  0  0  0  0  0  0
  -21.7777   23.3378  -39.5422 C   0  0  1  0  0  0  0  0  0  0  0  0
  -22.5046   24.6533  -39.8588 C   0  0  0  0  0  0  0  0  0  0  0  0
  -22.9169   25.3609  -38.6207 C   0  0  0  0  0  0  0  0  0  0  0  0
  -23.7185   24.5196  -37.6913 C   0  0  2  0  0  0  0  0  0  0  0  0
  -25.0986   24.2772  -38.1740 C   0  0  0  0  0  0  0  0  0  0  0  0
  1  2  1  0
  2  3  2  0
  4  2  1  6
  4  5  1  0
  5  6  1  0
  7  6  1  1
  7  8  1  0
  8  9  1  1
  9 10  1  0
 10 11  1  0
 11 12  2  0
 12 13  1  0
 13 14  2  0
 13 15  1  0
 15 16  1  0
 16 17  1  0
 17 18  1  6
 17 19  1  0
 19 20  1  6
 20 21  1  0
 21 22  1  0
 22 23  1  6
 22  4  1  0
 22  7  1  0
 19  8  1  0
 17 11  1  0
M  END
$$$$
