
     RDKit          3D

 24 27  0  0  0  0  0  0  0  0999 V2000
  -28.9719   14.3207  -23.8223 C   0  0  0  0  0  0  0  0  0  0  0  0
  -30.2786   14.8593  -23.7633 O   0  0  0  0  0  0  0  0  0  0  0  0
  -30.6020   15.9104  -24.6128 C   0  0  0  0  0  0  0  0  0  0  0  0
  -29.6686   16.6678  -25.2825 C   0  0  0  0  0  0  0  0  0  0  0  0
  -30.0395   17.7234  -26.1300 C   0  0  0  0  0  0  0  0  0  0  0  0
  -31.3621   18.0344  -26.3172 C   0  0  0  0  0  0  0  0  0  0  0  0
  -32.3230   17.2767  -25.6456 C   0  0  0  0  0  0  0  0  0  0  0  0
  -31.9238   16.2450  -24.8198 C   0  0  0  0  0  0  0  0  0  0  0  0
  -32.8730   15.4705  -24.1362 O   0  0  0  0  0  0  0  0  0  0  0  0
  -34.0690   15.0357  -24.7141 C   0  0  0  0  0  0  0  0  0  0  0  0
  -34.8152   14.1603  -23.7086 C   0  0  0  0  0  0  0  0  0  0  0  0
  -36.1258   13.7542  -24.3435 C   0  0  0  0  0  0  0  0  0  0  0  0
  -36.0944   12.5156  -25.0430 N   0  0  0  0  0  0  0  0  0  0  0  0
  -35.4534   11.4360  -24.3727 C   0  0  0  0  0  0  0  0  0  0  0  0
  -36.5167   10.5681  -23.7803 C   0  0  0  0  0  0  0  0  0  0  0  0
  -37.7771   10.9713  -24.4633 C   0  0  0  0  0  0  0  0  0  0  0  0
  -37.4109   12.0532  -25.4364 C   0  0  0  0  0  0  0  0  0  0  0  0
  -31.4368   19.1370  -27.2150 N   0  0  0  0  0  0  0  0  0  0  0  0
  -30.2680   19.5145  -27.5825 C   0  0  0  0  0  0  0  0  0  0  0  0
  -29.9334   20.5955  -28.4822 N   0  0  0  0  0  0  0  0  0  0  0  0
  -29.2730   18.6709  -26.9489 C   0  0  0  0  0  0  0  0  0  0  0  0
  -28.1308   19.3661  -26.2478 C   0  0  0  0  0  0  0  0  0  0  0  0
  -27.3427   19.2046  -27.5369 C   0  0  0  0  0  0  0  0  0  0  0  0
  -28.2493   18.0391  -27.8679 C   0  0  0  0  0  0  0  0  0  0  0  0
  1  2  1  0
  2  3  1  0
  3  4  2  0
  4  5  1  0
  5  6  2  0
  6  7  1  0
  7  8  2  0
  8  9  1  0
  9 10  1  0
 10 11  1  0
 11 12  1  0
 12 13  1  0
 13 14  1  0
 14 15  1  0
 15 16  1  0
 16 17  1  0
  6 18  1  0
 18 19  2  0
 19 20  1  0
 19 21  1  0
 21 22  1  0
 22 23  1  0
 23 24  1  0
  8  3  1  0
 17 13  1  0
 24 21  1  0
 21  5  1  0
M  END
$$$$
