
     RDKit          3D

 21 24  0  0  0  0  0  0  0  0999 V2000
  -15.5074   15.4799  -33.2352 C   0  0  0  0  0  0  0  0  0  0  0  0
  -16.0155   16.8682  -32.9832 C   0  0  2  0  0  0  0  0  0  0  0  0
  -17.1315   16.8657  -32.0097 C   0  0  0  0  0  0  0  0  0  0  0  0
  -18.3150   16.1619  -32.6276 C   0  0  0  0  0  0  0  0  0  0  0  0
  -18.6886   16.8191  -33.9219 C   0  0  2  0  0  0  0  0  0  0  0  0
  -19.9434   16.3275  -34.4940 C   0  0  0  0  0  0  0  0  0  0  0  0
  -20.8283   15.4857  -33.8678 C   0  0  0  0  0  0  0  0  0  0  0  0
  -21.9902   15.0809  -34.5019 C   0  0  0  0  0  0  0  0  0  0  0  0
  -22.3148   15.4955  -35.7763 C   0  0  0  0  0  0  0  0  0  0  0  0
  -23.4933   15.0588  -36.3651 O   0  0  0  0  0  0  0  0  0  0  0  0
  -21.4285   16.3427  -36.4122 C   0  0  0  0  0  0  0  0  0  0  0  0
  -20.2712   16.7433  -35.7751 C   0  0  0  0  0  0  0  0  0  0  0  0
  -19.2886   17.6589  -36.4316 C   0  0  0  0  0  0  0  0  0  0  0  0
  -17.8816   17.1422  -36.2837 C   0  0  0  0  0  0  0  0  0  0  0  0
  -17.5194   16.7544  -34.8895 C   0  0  1  0  0  0  0  0  0  0  0  0
  -16.4309   17.5664  -34.2866 C   0  0  2  0  0  0  0  0  0  0  0  0
  -15.1537   17.6115  -35.0256 C   0  0  0  0  0  0  0  0  0  0  0  0
  -14.1129   17.8335  -33.9399 C   0  0  1  0  0  0  0  0  0  0  0  0
  -13.6280   19.1349  -34.0701 O   0  0  0  0  0  0  0  0  0  0  0  0
  -14.8486   17.7373  -32.6153 C   0  0  2  0  0  0  0  0  0  0  0  0
  -14.0547   17.1789  -31.6242 O   0  0  0  0  0  0  0  0  0  0  0  0
  2  1  1  6
  2  3  1  0
  3  4  1  0
  5  4  1  1
  5  6  1  0
  6  7  2  0
  7  8  1  0
  8  9  2  0
  9 10  1  0
  9 11  1  0
 11 12  2  0
 12 13  1  0
 13 14  1  0
 15 14  1  6
 15 16  1  0
 16 17  1  6
 17 18  1  0
 18 19  1  6
 18 20  1  0
 20 21  1  1
 16  2  1  0
 20  2  1  0
 15  5  1  0
 12  6  1  0
M  END
$$$$
