
     RDKit          3D

 23 25  0  0  0  0  0  0  0  0999 V2000
  -18.2101   15.3340  -29.9574 O   0  0  0  0  0  0  0  0  0  0  0  0
  -16.8911   15.6966  -30.5930 S   0  0  0  0  0  6  0  0  0  0  0  0
  -16.4601   16.9746  -29.9865 O   0  0  0  0  0  0  0  0  0  0  0  0
  -16.9871   15.6614  -32.2872 N   0  0  0  0  0  0  0  0  0  0  0  0
  -17.3375   16.8858  -32.9205 C   0  0  0  0  0  0  0  0  0  0  0  0
  -15.9604   17.6082  -33.1245 C   0  0  0  0  0  0  0  0  0  0  0  0
  -16.2723   18.8580  -33.8901 C   0  0  0  0  0  0  0  0  0  0  0  0
  -17.7307   19.2445  -33.8614 C   0  0  0  0  0  0  0  0  0  0  0  0
  -18.5335   18.1857  -34.5776 C   0  0  0  0  0  0  0  0  0  0  0  0
  -17.9192   16.8195  -34.2760 C   0  0  0  0  0  0  0  0  0  0  0  0
  -18.7979   15.7486  -34.5806 N   0  0  0  0  0  0  0  0  0  0  0  0
  -19.9644   15.8512  -33.7073 C   0  0  0  0  0  0  0  0  0  0  0  0
  -20.8399   14.6256  -33.8239 C   0  0  0  0  0  0  0  0  0  0  0  0
  -20.5542   13.8584  -34.9220 O   0  0  0  0  0  0  0  0  0  0  0  0
  -19.2427   13.4562  -35.0344 C   0  0  0  0  0  0  0  0  0  0  0  0
  -18.2334   14.4206  -34.4866 C   0  0  0  0  0  0  0  0  0  0  0  0
  -15.6751   14.4970  -30.1152 C   0  0  0  0  0  0  0  0  0  0  0  0
  -14.3359   14.8192  -30.0648 C   0  0  0  0  0  0  0  0  0  0  0  0
  -13.4086   13.8549  -29.6875 C   0  0  0  0  0  0  0  0  0  0  0  0
  -13.7876   12.5715  -29.3579 C   0  0  0  0  0  0  0  0  0  0  0  0
  -12.6195   11.3761  -28.8881 Cl  0  0  0  0  0  0  0  0  0  0  0  0
  -15.1408   12.2607  -29.4131 C   0  0  0  0  0  0  0  0  0  0  0  0
  -16.0739   13.2248  -29.7909 C   0  0  0  0  0  0  0  0  0  0  0  0
  1  2  2  0
  2  3  2  0
  2  4  1  0
  4  5  1  0
  5  6  1  0
  6  7  1  0
  7  8  1  0
  8  9  1  0
  9 10  1  0
 10 11  1  0
 11 12  1  0
 12 13  1  0
 13 14  1  0
 14 15  1  0
 15 16  1  0
  2 17  1  0
 17 18  2  0
 18 19  1  0
 19 20  2  0
 20 21  1  0
 20 22  1  0
 22 23  2  0
 10  5  1  0
 16 11  1  0
 23 17  1  0
M  END
$$$$
