
     RDKit          3D

 20 24  0  0  0  0  0  0  0  0999 V2000
  -35.8089   49.0902  -26.6527 C   0  0  0  0  0  0  0  0  0  0  0  0
  -35.1966   48.0633  -25.7865 C   0  0  0  0  0  0  0  0  0  0  0  0
  -35.6974   48.2477  -24.3790 C   0  0  0  0  0  0  0  0  0  0  0  0
  -37.0039   47.5049  -24.2690 C   0  0  0  0  0  0  0  0  0  0  0  0
  -37.2994   46.6287  -23.2960 N   0  0  0  0  0  0  0  0  0  0  0  0
  -38.5136   46.1664  -23.5085 N   0  0  0  0  0  0  0  0  0  0  0  0
  -39.0589   46.7282  -24.6356 C   0  0  0  0  0  0  0  0  0  0  0  0
  -40.3825   46.4449  -25.2087 C   0  0  0  0  0  0  0  0  0  0  0  0
  -40.7310   44.9670  -25.1705 C   0  0  0  0  0  0  0  0  0  0  0  0
  -42.1943   44.7397  -25.4042 C   0  0  0  0  0  0  0  0  0  0  0  0
  -42.4782   45.2382  -26.8282 C   0  0  0  0  0  0  0  0  0  0  0  0
  -42.1213   46.6899  -26.9014 C   0  0  0  0  0  0  0  0  0  0  0  0
  -43.0859   47.4337  -26.0019 C   0  0  0  0  0  0  0  0  0  0  0  0
  -42.7889   46.9477  -24.5998 C   0  0  0  0  0  0  0  0  0  0  0  0
  -43.0774   45.4924  -24.4578 C   0  0  0  0  0  0  0  0  0  0  0  0
  -41.3677   47.2036  -24.2748 C   0  0  0  0  0  0  0  0  0  0  0  0
  -40.6754   46.9797  -26.5523 C   0  0  0  0  0  0  0  0  0  0  0  0
  -38.0950   47.5513  -25.0795 N   0  0  0  0  0  0  0  0  0  0  0  0
  -38.1985   48.3631  -26.2727 C   0  0  0  0  0  0  0  0  0  0  0  0
  -37.1978   49.5066  -26.2919 C   0  0  0  0  0  0  0  0  0  0  0  0
  1  2  1  0
  2  3  1  0
  3  4  1  0
  4  5  2  0
  5  6  1  0
  6  7  2  0
  7  8  1  0
  8  9  1  0
  9 10  1  0
 10 11  1  0
 11 12  1  0
 12 13  1  0
 13 14  1  0
 14 15  1  0
 14 16  1  0
 12 17  1  0
  7 18  1  0
 18 19  1  0
 19 20  1  0
 20  1  1  0
 18  4  1  0
 16  8  1  0
 17  8  1  0
 15 10  1  0
M  END
$$$$
