
     RDKit          3D

 27 28  0  0  0  0  0  0  0  0999 V2000
  -24.1998   27.0041  -36.5544 C   0  0  0  0  0  0  0  0  0  0  0  0
  -24.6602   27.3140  -35.2521 O   0  0  0  0  0  0  0  0  0  0  0  0
  -25.3158   26.3000  -34.5427 C   0  0  0  0  0  0  0  0  0  0  0  0
  -26.5641   25.8388  -34.8926 C   0  0  0  0  0  0  0  0  0  0  0  0
  -27.2186   24.8372  -34.1965 C   0  0  0  0  0  0  0  0  0  0  0  0
  -28.5674   24.3933  -34.6376 C   0  0  0  0  0  0  0  0  0  0  0  0
  -26.5850   24.2820  -33.1054 C   0  0  0  0  0  0  0  0  0  0  0  0
  -27.2204   23.2245  -32.3313 C   0  0  0  0  0  0  0  0  0  0  0  0
  -27.1048   22.0072  -32.6206 O   0  0  0  0  0  0  0  0  0  0  0  0
  -27.9774   23.5518  -31.2420 O   0  0  0  0  0  0  0  0  0  0  0  0
  -28.5729   22.6392  -30.3832 C   0  0  0  0  0  0  0  0  0  0  0  0
  -28.0065   22.2955  -29.1766 C   0  0  0  0  0  0  0  0  0  0  0  0
  -28.5786   21.3925  -28.3078 C   0  0  0  0  0  0  0  0  0  0  0  0
  -27.9757   21.0156  -27.0048 C   0  0  0  0  0  0  0  0  0  0  0  0
  -29.7794   20.8149  -28.6847 C   0  0  0  0  0  0  0  0  0  0  0  0
  -30.4636   19.8411  -27.8230 C   0  0  0  0  0  0  0  0  0  0  0  0
  -30.7931   18.6988  -28.2136 O   0  0  0  0  0  0  0  0  0  0  0  0
  -30.7356   20.2523  -26.5259 O   0  0  0  0  0  0  0  0  0  0  0  0
  -30.3880   21.1228  -29.8788 C   0  0  0  0  0  0  0  0  0  0  0  0
  -31.5907   20.5321  -30.2362 O   0  0  0  0  0  0  0  0  0  0  0  0
  -29.7689   22.0453  -30.7277 C   0  0  0  0  0  0  0  0  0  0  0  0
  -30.4101   22.3918  -32.0227 C   0  0  0  0  0  0  0  0  0  0  0  0
  -25.3142   24.7088  -32.6997 C   0  0  0  0  0  0  0  0  0  0  0  0
  -24.7044   24.1240  -31.5910 O   0  0  0  0  0  0  0  0  0  0  0  0
  -23.8701   24.8452  -30.7106 C   0  0  0  0  0  0  0  0  0  0  0  0
  -24.7224   25.7090  -33.4385 C   0  0  0  0  0  0  0  0  0  0  0  0
  -23.3763   26.1592  -33.0066 C   0  0  0  0  0  0  0  0  0  0  0  0
  1  2  1  0
  2  3  1  0
  3  4  2  0
  4  5  1  0
  5  6  1  0
  5  7  2  0
  7  8  1  0
  8  9  2  0
  8 10  1  0
 10 11  1  0
 11 12  2  0
 12 13  1  0
 13 14  1  0
 13 15  2  0
 15 16  1  0
 16 17  2  0
 16 18  1  0
 15 19  1  0
 19 20  1  0
 19 21  2  0
 21 22  1  0
  7 23  1  0
 23 24  1  0
 24 25  1  0
 23 26  2  0
 26 27  1  0
 26  3  1  0
 21 11  1  0
M  END
$$$$
