
     RDKit          3D

 29 33  0  0  0  0  0  0  0  0999 V2000
  -17.7668   21.1575  -31.6132 C   0  0  0  0  0  0  0  0  0  0  0  0
  -17.9533   19.9886  -32.5384 C   0  0  2  0  0  0  0  0  0  0  0  0
  -19.1643   19.2311  -32.1088 C   0  0  0  0  0  0  0  0  0  0  0  0
  -19.3132   17.8726  -32.7159 C   0  0  0  0  0  0  0  0  0  0  0  0
  -18.0468   17.2416  -33.1671 C   0  0  0  0  0  0  0  0  0  0  0  0
  -16.9156   17.7086  -32.3468 C   0  0  1  0  0  0  0  0  0  0  0  0
  -15.6512   16.9108  -32.5227 C   0  0  0  0  0  0  0  0  0  0  0  0
  -15.7369   15.8871  -33.6102 C   0  0  0  0  0  0  0  0  0  0  0  0
  -16.9618   15.0058  -33.5005 C   0  0  2  0  0  0  0  0  0  0  0  0
  -16.6325   13.9784  -32.5952 O   0  0  0  0  0  0  0  0  0  0  0  0
  -17.1580   14.3618  -34.8383 C   0  0  0  0  0  0  0  0  0  0  0  0
  -18.4089   13.5871  -34.9947 C   0  0  1  0  0  0  0  0  0  0  0  0
  -18.1432   12.2101  -35.1769 O   0  0  0  0  0  0  0  0  0  0  0  0
  -19.4399   13.8108  -33.9344 C   0  0  0  0  0  0  0  0  0  0  0  0
  -19.4459   15.3226  -33.6745 C   0  0  0  0  0  0  0  0  0  0  0  0
  -18.1613   15.7169  -32.9704 C   0  0  2  0  0  0  0  0  0  0  0  0
  -18.3582   15.4013  -31.5293 C   0  0  0  0  0  0  0  0  0  0  0  0
  -19.4513   15.5385  -30.9580 O   0  0  0  0  0  0  0  0  0  0  0  0
  -16.6811   19.1690  -32.5205 C   0  0  2  0  0  0  0  0  0  0  0  0
  -15.8391   19.5304  -31.4538 O   0  0  0  0  0  0  0  0  0  0  0  0
  -15.9020   19.5327  -33.7701 C   0  0  0  0  0  0  0  0  0  0  0  0
  -16.6886   20.6432  -34.4659 C   0  0  0  0  0  0  0  0  0  0  0  0
  -18.1019   20.4604  -33.9407 C   0  0  2  0  0  0  0  0  0  0  0  0
  -18.9838   21.5984  -34.2282 C   0  0  0  0  0  0  0  0  0  0  0  0
  -19.3223   22.1057  -35.3788 C   0  0  0  0  0  0  0  0  0  0  0  0
  -20.2339   23.2472  -35.2212 C   0  0  0  0  0  0  0  0  0  0  0  0
  -20.7558   23.9686  -36.1138 O   0  0  0  0  0  0  0  0  0  0  0  0
  -20.4083   23.3742  -33.8673 O   0  0  0  0  0  0  0  0  0  0  0  0
  -19.6863   22.4166  -33.1646 C   0  0  0  0  0  0  0  0  0  0  0  0
  2  1  1  1
  2  3  1  0
  3  4  1  0
  4  5  1  0
  5  6  1  0
  6  7  1  6
  7  8  1  0
  8  9  1  0
  9 10  1  1
  9 11  1  0
 11 12  1  0
 12 13  1  1
 12 14  1  0
 14 15  1  0
 15 16  1  0
 16 17  1  1
 17 18  2  0
  6 19  1  0
 19 20  1  1
 19 21  1  0
 21 22  1  0
 22 23  1  0
 23 24  1  1
 24 25  2  0
 25 26  1  0
 26 27  2  0
 26 28  1  0
 28 29  1  0
 19  2  1  0
 29 24  1  0
 23  2  1  0
 16  5  1  0
 16  9  1  0
M  END
$$$$
