
     RDKit          3D

 34 37  0  0  0  0  0  0  0  0999 V2000
  -19.9367   20.6664  -34.9001 C   0  0  0  0  0  0  0  0  0  0  0  0
  -19.6981   19.2652  -35.4582 C   0  0  0  0  0  0  0  0  0  0  0  0
  -20.1339   18.2138  -34.5052 C   0  0  0  0  0  0  0  0  0  0  0  0
  -20.8824   18.6191  -33.5621 O   0  0  0  0  0  0  0  0  0  0  0  0
  -19.7455   16.8759  -34.6490 O   0  0  0  0  0  0  0  0  0  0  0  0
  -18.3830   16.6332  -34.9507 C   0  0  2  0  0  0  0  0  0  0  0  0
  -17.9322   17.3534  -36.1468 C   0  0  0  0  0  0  0  0  0  0  0  0
  -17.6742   18.5681  -36.0049 O   0  0  0  0  0  0  0  0  0  0  0  0
  -17.6705   16.7638  -37.7781 S   0  0  0  0  0  0  0  0  0  0  0  0
  -17.4245   17.9621  -39.0585 C   0  0  0  0  0  0  0  0  0  0  0  0
  -18.2880   18.9892  -39.1601 F   0  0  0  0  0  0  0  0  0  0  0  0
  -18.2910   15.1377  -35.4532 C   0  0  2  0  0  0  0  0  0  0  0  0
  -19.2744   14.2678  -34.7561 C   0  0  0  0  0  0  0  0  0  0  0  0
  -16.8957   14.8132  -34.9508 C   0  0  0  0  0  0  0  0  0  0  0  0
  -17.0815   15.2562  -33.5619 C   0  0  1  0  0  0  0  0  0  0  0  0
  -15.9483   15.2946  -32.6356 C   0  0  2  0  0  0  0  0  0  0  0  0
  -15.1333   14.0424  -32.7444 C   0  0  0  0  0  0  0  0  0  0  0  0
  -13.9728   14.1931  -31.7346 C   0  0  2  0  0  0  0  0  0  0  0  0
  -13.1315   13.1328  -31.7685 F   0  0  0  0  0  0  0  0  0  0  0  0
  -14.7311   14.1989  -30.4123 C   0  0  0  0  0  0  0  0  0  0  0  0
  -14.5062   13.2259  -29.5992 C   0  0  0  0  0  0  0  0  0  0  0  0
  -15.1843   13.1335  -28.3155 C   0  0  0  0  0  0  0  0  0  0  0  0
  -14.9897   12.2013  -27.4967 O   0  0  0  0  0  0  0  0  0  0  0  0
  -16.1296   14.1954  -28.0006 C   0  0  0  0  0  0  0  0  0  0  0  0
  -16.3254   15.1763  -28.8654 C   0  0  0  0  0  0  0  0  0  0  0  0
  -15.6569   15.3093  -30.1544 C   0  0  1  0  0  0  0  0  0  0  0  0
  -14.7966   16.5621  -30.0672 C   0  0  0  0  0  0  0  0  0  0  0  0
  -16.6641   15.3870  -31.2656 C   0  0  2  0  0  0  0  0  0  0  0  0
  -17.4073   14.2212  -31.2034 F   0  0  0  0  0  0  0  0  0  0  0  0
  -17.5904   16.5268  -31.2026 C   0  0  1  0  0  0  0  0  0  0  0  0
  -17.0404   17.6660  -30.5942 O   0  0  0  0  0  0  0  0  0  0  0  0
  -18.3060   16.9414  -32.4280 C   0  0  0  0  0  0  0  0  0  0  0  0
  -17.5648   16.7090  -33.7321 C   0  0  2  0  0  0  0  0  0  0  0  0
  -16.3933   17.6554  -33.7976 C   0  0  0  0  0  0  0  0  0  0  0  0
  1  2  1  0
  2  3  1  0
  3  4  2  0
  3  5  1  0
  6  5  1  1
  6  7  1  0
  7  8  2  0
  7  9  1  0
  9 10  1  0
 10 11  1  0
  6 12  1  0
 12 13  1  1
 12 14  1  0
 15 14  1  6
 15 16  1  0
 16 17  1  1
 17 18  1  0
 18 19  1  1
 18 20  1  0
 20 21  2  0
 21 22  1  0
 22 23  2  0
 22 24  1  0
 24 25  2  0
 25 26  1  0
 26 27  1  1
 26 28  1  0
 28 29  1  1
 28 30  1  0
 30 31  1  6
 30 32  1  0
 32 33  1  0
 33 34  1  6
 33  6  1  0
 33 15  1  0
 28 16  1  0
 26 20  1  0
M  END
$$$$
