
     RDKit          3D

 26 28  0  0  0  0  0  0  0  0999 V2000
   -8.4282   19.3710  -42.3607 O   0  0  0  0  0  0  0  0  0  0  0  0
   -9.6576   19.4962  -42.1584 C   0  0  0  0  0  0  0  0  0  0  0  0
  -10.3694   20.1132  -43.2192 O   0  0  0  0  0  0  0  0  0  0  0  0
  -10.3835   19.0686  -40.9542 C   0  0  0  0  0  0  0  0  0  0  0  0
  -11.4527   18.0917  -41.2154 C   0  0  0  0  0  0  0  0  0  0  0  0
  -12.2093   17.5689  -40.0830 C   0  0  0  0  0  0  0  0  0  0  0  0
  -11.8152   17.7772  -38.7594 C   0  0  0  0  0  0  0  0  0  0  0  0
  -12.5281   17.2433  -37.6969 C   0  0  0  0  0  0  0  0  0  0  0  0
  -13.6615   16.4782  -37.8673 C   0  0  0  0  0  0  0  0  0  0  0  0
  -14.4025   15.9014  -36.8149 N   0  0  0  0  0  0  0  0  0  0  0  0
  -14.9747   16.4892  -35.6656 C   0  0  0  0  0  0  0  0  0  0  0  0
  -16.3572   16.9619  -35.7659 C   0  0  0  0  0  0  0  0  0  0  0  0
  -16.8404   17.3794  -37.0013 C   0  0  0  0  0  0  0  0  0  0  0  0
  -18.1213   17.8594  -37.1315 C   0  0  0  0  0  0  0  0  0  0  0  0
  -18.9407   17.9332  -36.0445 C   0  0  0  0  0  0  0  0  0  0  0  0
  -18.4795   17.5264  -34.8214 C   0  0  0  0  0  0  0  0  0  0  0  0
  -19.3003   17.5954  -33.7080 O   0  0  0  0  0  0  0  0  0  0  0  0
  -20.3513   16.7071  -33.6086 C   0  0  0  0  0  0  0  0  0  0  0  0
  -20.1347   15.3629  -33.5851 C   0  0  0  0  0  0  0  0  0  0  0  0
  -21.2108   14.4789  -33.4841 C   0  0  0  0  0  0  0  0  0  0  0  0
  -22.4905   14.9864  -33.4089 C   0  0  0  0  0  0  0  0  0  0  0  0
  -22.7287   16.3268  -33.4308 C   0  0  0  0  0  0  0  0  0  0  0  0
  -21.6381   17.1939  -33.5324 C   0  0  0  0  0  0  0  0  0  0  0  0
  -17.1805   17.0394  -34.6863 C   0  0  0  0  0  0  0  0  0  0  0  0
  -14.0457   16.2766  -39.1968 C   0  0  0  0  0  0  0  0  0  0  0  0
  -13.3383   16.8062  -40.2540 C   0  0  0  0  0  0  0  0  0  0  0  0
  1  2  2  0
  2  3  1  0
  2  4  1  0
  4  5  1  0
  5  6  1  0
  6  7  2  0
  7  8  1  0
  8  9  2  0
  9 10  1  0
 10 11  1  0
 11 12  1  0
 12 13  2  0
 13 14  1  0
 14 15  2  0
 15 16  1  0
 16 17  1  0
 17 18  1  0
 18 19  2  0
 19 20  1  0
 20 21  2  0
 21 22  1  0
 22 23  2  0
 16 24  2  0
  9 25  1  0
 25 26  2  0
 26  6  1  0
 24 12  1  0
 23 18  1  0
M  END
$$$$
