
     RDKit          3D

 30 32  0  0  0  0  0  0  0  0999 V2000
  -14.3492   -0.6008  -33.5734 Br  0  0  0  0  0  0  0  0  0  0  0  0
  -20.2940   -0.8183  -30.7242 C   0  0  0  0  0  0  0  0  0  0  0  0
  -19.6167   -0.4810  -31.9082 O   0  0  0  0  0  0  0  0  0  0  0  0
  -20.2681   -0.1380  -33.0855 C   0  0  0  0  0  0  0  0  0  0  0  0
  -21.6700   -0.1353  -33.0668 C   0  0  0  0  0  0  0  0  0  0  0  0
  -22.3506    0.1999  -34.2179 C   0  0  0  0  0  0  0  0  0  0  0  0
  -21.6683    0.5237  -35.3568 C   0  0  0  0  0  0  0  0  0  0  0  0
  -20.2822    0.5151  -35.3535 C   0  0  0  0  0  0  0  0  0  0  0  0
  -19.5607    0.1857  -34.2234 C   0  0  0  0  0  0  0  0  0  0  0  0
  -18.1459    0.1843  -34.2138 N   0  0  0  0  0  0  0  0  0  0  0  0
  -17.3472    1.0458  -33.3707 C   0  0  0  0  0  0  0  0  0  0  0  0
  -16.1969    0.3343  -32.7018 C   0  0  0  0  0  0  0  0  0  0  0  0
  -15.4293   -0.4523  -33.6662 N   0  0  0  0  0  0  0  0  0  0  0  0
  -15.3596   -1.8158  -33.2557 C   0  0  0  0  0  0  0  0  0  0  0  0
  -14.5217   -2.6150  -34.2182 C   0  0  0  0  0  0  0  0  0  0  0  0
  -13.1441   -2.0013  -34.2866 C   0  0  0  0  0  0  0  0  0  0  0  0
  -12.4886   -2.0099  -32.9493 C   0  0  0  0  0  0  0  0  0  0  0  0
  -11.1403   -1.4182  -33.0359 N   0  0  0  0  0  0  0  0  0  0  0  0
   -9.9082   -2.0724  -33.3019 C   0  0  0  0  0  0  0  0  0  0  0  0
   -9.7586   -3.3105  -33.5152 O   0  0  0  0  0  0  0  0  0  0  0  0
   -8.8109   -1.0789  -33.2927 C   0  0  0  0  0  0  0  0  0  0  0  0
   -7.4493   -1.1945  -33.4913 C   0  0  0  0  0  0  0  0  0  0  0  0
   -6.6496   -0.0766  -33.4229 C   0  0  0  0  0  0  0  0  0  0  0  0
   -7.2504    1.1388  -33.1536 C   0  0  0  0  0  0  0  0  0  0  0  0
   -8.6123    1.2330  -32.9584 C   0  0  0  0  0  0  0  0  0  0  0  0
   -9.4229    0.1302  -33.0229 C   0  0  0  0  0  0  0  0  0  0  0  0
  -10.8617   -0.0319  -32.8572 C   0  0  0  0  0  0  0  0  0  0  0  0
  -11.7285    0.8688  -32.6020 O   0  0  0  0  0  0  0  0  0  0  0  0
  -15.9585   -0.3264  -34.9812 C   0  0  0  0  0  0  0  0  0  0  0  0
  -17.4352   -0.7258  -35.0936 C   0  0  0  0  0  0  0  0  0  0  0  0
  2  3  1  0
  3  4  1  0
  4  5  2  0
  5  6  1  0
  6  7  2  0
  7  8  1  0
  8  9  2  0
  9 10  1  0
 10 11  1  0
 11 12  1  0
 12 13  1  0
 13 14  1  0
 14 15  1  0
 15 16  1  0
 16 17  1  0
 17 18  1  0
 18 19  1  0
 19 20  2  0
 19 21  1  0
 21 22  2  0
 22 23  1  0
 23 24  2  0
 24 25  1  0
 25 26  2  0
 26 27  1  0
 27 28  2  0
 13 29  1  0
 29 30  1  0
  9  4  1  0
 30 10  1  0
 27 18  1  0
 26 21  1  0
M  END
$$$$
