
     RDKit          3D

 13 12  0  0  0  0  0  0  0  0999 V2000
   -1.8924   17.3735  -22.2208 C   0  0  0  0  0  0  0  0  0  0  0  0
   -0.8149   17.6286  -22.6844 C   0  0  0  0  0  0  0  0  0  0  0  0
    0.5047   17.9536  -23.2686 C   0  0  0  0  0  0  0  0  0  0  0  0
    1.2848   18.5684  -22.2603 N   0  0  0  0  0  0  0  0  0  0  0  0
    2.5889   18.9912  -22.6051 C   0  0  0  0  0  0  0  0  0  0  0  0
    0.6128   19.2473  -21.2186 C   0  0  0  0  0  0  0  0  0  0  0  0
    1.5212   19.8568  -20.2168 C   0  0  0  0  0  0  0  0  0  0  0  0
    1.9530   21.1365  -20.3715 C   0  0  0  0  0  0  0  0  0  0  0  0
    2.7965   21.7294  -19.4580 C   0  0  0  0  0  0  0  0  0  0  0  0
    3.2468   21.0440  -18.3312 C   0  0  0  0  0  0  0  0  0  0  0  0
    2.8114   19.7497  -18.1729 C   0  0  0  0  0  0  0  0  0  0  0  0
    1.9711   19.1657  -19.0874 C   0  0  0  0  0  0  0  0  0  0  0  0
    1.0024   19.0443  -21.3472 Cl  0  0  0  0  0  0  0  0  0  0  0  0
  1  2  3  0
  2  3  1  0
  3  4  1  0
  4  5  1  0
  4  6  1  0
  6  7  1  0
  7  8  2  0
  8  9  1  0
  9 10  2  0
 10 11  1  0
 11 12  2  0
 12  7  1  0
M  END
$$$$
