
     RDKit          3D

 26 27  0  0  0  0  0  0  0  0999 V2000
  -18.6181   41.6214  -25.2184 N   0  0  0  0  0  0  0  0  0  0  0  0
  -18.7034   40.7852  -24.4139 C   0  0  0  0  0  0  0  0  0  0  0  0
  -18.7837   39.7556  -23.4208 C   0  0  0  0  0  0  0  0  0  0  0  0
  -18.8722   38.4156  -23.6602 N   0  0  0  0  0  0  0  0  0  0  0  0
  -18.9283   37.7650  -22.5076 N   0  0  0  0  0  0  0  0  0  0  0  0
  -19.0267   36.3503  -22.2851 C   0  0  0  0  0  0  0  0  0  0  0  0
  -17.9004   35.5550  -22.1336 C   0  0  0  0  0  0  0  0  0  0  0  0
  -16.3226   36.3067  -22.2178 Cl  0  0  0  0  0  0  0  0  0  0  0  0
  -18.0127   34.1955  -21.9202 C   0  0  0  0  0  0  0  0  0  0  0  0
  -19.2486   33.5949  -21.8524 C   0  0  0  0  0  0  0  0  0  0  0  0
  -19.3958   32.1325  -21.6234 C   0  0  0  0  0  0  0  0  0  0  0  0
  -18.8593   31.8706  -20.3734 F   0  0  0  0  0  0  0  0  0  0  0  0
  -20.7349   31.8372  -21.6091 F   0  0  0  0  0  0  0  0  0  0  0  0
  -18.7794   31.3976  -22.6069 F   0  0  0  0  0  0  0  0  0  0  0  0
  -20.3785   34.3687  -22.0005 C   0  0  0  0  0  0  0  0  0  0  0  0
  -20.2569   35.7259  -22.2134 C   0  0  0  0  0  0  0  0  0  0  0  0
  -21.6841   36.7131  -22.4021 Cl  0  0  0  0  0  0  0  0  0  0  0  0
  -18.8782   38.6551  -21.5161 C   0  0  0  0  0  0  0  0  0  0  0  0
  -18.9109   38.3862  -20.1212 N   0  0  0  0  0  0  0  0  0  0  0  0
  -18.7854   39.9388  -22.0532 C   0  0  0  0  0  0  0  0  0  0  0  0
  -18.6915   41.4605  -21.1479 S   0  0  0  0  0  4  0  0  0  0  0  0
  -19.2710   42.5624  -22.0085 O   0  0  0  0  0  0  0  0  0  0  0  0
  -16.9952   41.8509  -20.7057 C   0  0  0  0  0  0  0  0  0  0  0  0
  -16.1463   41.5850  -21.7488 F   0  0  0  0  0  0  0  0  0  0  0  0
  -16.8313   43.1645  -20.3460 F   0  0  0  0  0  0  0  0  0  0  0  0
  -16.6442   41.0591  -19.6365 F   0  0  0  0  0  0  0  0  0  0  0  0
  1  2  3  0
  2  3  1  0
  3  4  2  0
  4  5  1  0
  5  6  1  0
  6  7  2  0
  7  8  1  0
  7  9  1  0
  9 10  2  0
 10 11  1  0
 11 12  1  0
 11 13  1  0
 11 14  1  0
 10 15  1  0
 15 16  2  0
 16 17  1  0
  5 18  1  0
 18 19  1  0
 18 20  2  0
 20 21  1  0
 21 22  2  0
 21 23  1  0
 23 24  1  0
 23 25  1  0
 23 26  1  0
 20  3  1  0
 16  6  1  0
M  END
$$$$
