
     RDKit          3D

 25 28  0  0  0  0  0  0  0  0999 V2000
  -24.5923   15.9061  -32.9217 O   0  0  0  0  0  0  0  0  0  0  0  0
  -24.3759   14.6887  -33.1139 C   0  0  0  0  0  0  0  0  0  0  0  0
  -25.4456   13.6960  -33.3954 C   0  0  0  0  0  0  0  0  0  0  0  0
  -24.7662   12.4205  -32.9386 C   0  0  0  0  0  0  0  0  0  0  0  0
  -23.3422   12.6447  -33.4015 C   0  0  0  0  0  0  0  0  0  0  0  0
  -23.1128   14.0487  -33.1000 N   0  0  0  0  0  0  0  0  0  0  0  0
  -21.8165   14.6096  -32.8460 C   0  0  0  0  0  0  0  0  0  0  0  0
  -20.8456   13.8676  -32.2163 C   0  0  0  0  0  0  0  0  0  0  0  0
  -19.5837   14.4075  -31.9649 C   0  0  0  0  0  0  0  0  0  0  0  0
  -19.2712   15.6963  -32.3380 C   0  0  0  0  0  0  0  0  0  0  0  0
  -17.6625   16.2761  -31.9765 S   0  0  0  0  0  6  0  0  0  0  0  0
  -17.1373   15.4814  -30.8166 O   0  0  0  0  0  0  0  0  0  0  0  0
  -17.6558   17.7206  -31.5781 O   0  0  0  0  0  0  0  0  0  0  0  0
  -16.6156   16.1084  -33.3460 N   0  0  0  0  0  0  0  0  0  0  0  0
  -15.5398   17.0443  -33.3152 C   0  0  0  0  0  0  0  0  0  0  0  0
  -14.1909   16.4357  -33.6578 C   0  0  0  0  0  0  0  0  0  0  0  0
  -14.0055   15.2994  -32.7045 C   0  0  0  0  0  0  0  0  0  0  0  0
  -12.8844   15.0974  -31.9602 C   0  0  0  0  0  0  0  0  0  0  0  0
  -12.8372   13.9957  -31.1049 C   0  0  0  0  0  0  0  0  0  0  0  0
  -13.8969   13.1159  -31.0015 C   0  0  0  0  0  0  0  0  0  0  0  0
  -15.0366   13.3244  -31.7606 C   0  0  0  0  0  0  0  0  0  0  0  0
  -15.0758   14.4230  -32.6094 C   0  0  0  0  0  0  0  0  0  0  0  0
  -16.2516   14.7327  -33.4644 C   0  0  0  0  0  0  0  0  0  0  0  0
  -20.2203   16.4427  -32.9615 C   0  0  0  0  0  0  0  0  0  0  0  0
  -21.4711   15.8925  -33.2051 C   0  0  0  0  0  0  0  0  0  0  0  0
  1  2  2  0
  2  3  1  0
  3  4  1  0
  4  5  1  0
  5  6  1  0
  6  7  1  0
  7  8  2  0
  8  9  1  0
  9 10  2  0
 10 11  1  0
 11 12  2  0
 11 13  2  0
 11 14  1  0
 14 15  1  0
 15 16  1  0
 16 17  1  0
 17 18  2  0
 18 19  1  0
 19 20  2  0
 20 21  1  0
 21 22  2  0
 22 23  1  0
 10 24  1  0
 24 25  2  0
  6  2  1  0
 25  7  1  0
 23 14  1  0
 22 17  1  0
M  END
$$$$
