
     RDKit          3D

 37 40  0  0  0  0  0  0  0  0999 V2000
  -17.3120   -1.0659  -38.4710 C   0  0  0  0  0  0  0  0  0  0  0  0
  -16.8273   -1.3932  -37.1118 C   0  0  0  0  0  0  0  0  0  0  0  0
  -17.6793   -2.0749  -36.2401 C   0  0  0  0  0  0  0  0  0  0  0  0
  -17.2730   -2.3915  -34.9710 C   0  0  0  0  0  0  0  0  0  0  0  0
  -16.0032   -2.0514  -34.4976 C   0  0  0  0  0  0  0  0  0  0  0  0
  -15.6167   -2.3840  -33.1339 C   0  0  0  0  0  0  0  0  0  0  0  0
  -16.4637   -2.0159  -32.2525 O   0  0  0  0  0  0  0  0  0  0  0  0
  -14.4203   -3.0610  -32.7635 N   0  0  0  0  0  0  0  0  0  0  0  0
  -14.3469   -3.6494  -31.4946 C   0  0  0  0  0  0  0  0  0  0  0  0
  -15.4846   -3.9170  -30.6198 C   0  0  0  0  0  0  0  0  0  0  0  0
  -16.0615   -5.2832  -30.5603 C   0  0  0  0  0  0  0  0  0  0  0  0
  -15.7709   -5.8083  -29.2179 N   0  0  0  0  0  0  0  0  0  0  0  0
  -13.3130   -2.9433  -33.7144 C   0  0  1  0  0  0  0  0  0  0  0  0
  -12.4322   -1.8093  -33.4671 C   0  0  0  0  0  0  0  0  0  0  0  0
  -11.0967   -1.9656  -33.7635 N   0  0  0  0  0  0  0  0  0  0  0  0
  -10.1471   -1.0798  -33.5936 C   0  0  0  0  0  0  0  0  0  0  0  0
   -8.8471   -1.3777  -33.9362 C   0  0  0  0  0  0  0  0  0  0  0  0
   -7.8617   -0.4327  -33.7477 C   0  0  0  0  0  0  0  0  0  0  0  0
   -6.1889   -0.7705  -34.1713 Cl  0  0  0  0  0  0  0  0  0  0  0  0
   -8.1869    0.7967  -33.2196 C   0  0  0  0  0  0  0  0  0  0  0  0
   -9.5017    1.0950  -32.8740 C   0  0  0  0  0  0  0  0  0  0  0  0
  -10.4686    0.1442  -33.0684 C   0  0  0  0  0  0  0  0  0  0  0  0
  -11.8073    0.3327  -32.7600 C   0  0  0  0  0  0  0  0  0  0  0  0
  -12.0754    1.4680  -32.2740 O   0  0  0  0  0  0  0  0  0  0  0  0
  -12.7375   -0.6157  -32.9598 N   0  0  0  0  0  0  0  0  0  0  0  0
  -14.0862   -0.3182  -32.6127 C   0  0  0  0  0  0  0  0  0  0  0  0
  -14.2705    0.9570  -31.9117 C   0  0  0  0  0  0  0  0  0  0  0  0
  -14.5930    2.1012  -32.5924 C   0  0  0  0  0  0  0  0  0  0  0  0
  -14.7719    3.3164  -31.9146 C   0  0  0  0  0  0  0  0  0  0  0  0
  -14.6354    3.4113  -30.5653 C   0  0  0  0  0  0  0  0  0  0  0  0
  -14.3134    2.2765  -29.8603 C   0  0  0  0  0  0  0  0  0  0  0  0
  -14.1374    1.0829  -30.5251 C   0  0  0  0  0  0  0  0  0  0  0  0
  -12.4305   -4.2255  -33.5087 C   0  0  0  0  0  0  0  0  0  0  0  0
  -11.1466   -4.1179  -34.2839 C   0  0  0  0  0  0  0  0  0  0  0  0
  -13.2422   -5.4437  -33.8355 C   0  0  0  0  0  0  0  0  0  0  0  0
  -15.1955   -1.3788  -35.3949 C   0  0  0  0  0  0  0  0  0  0  0  0
  -15.5744   -1.0483  -36.6703 C   0  0  0  0  0  0  0  0  0  0  0  0
  1  2  1  0
  2  3  2  0
  3  4  1  0
  4  5  2  0
  5  6  1  0
  6  7  2  0
  6  8  1  0
  8  9  1  0
  9 10  1  0
 10 11  1  0
 11 12  1  0
  8 13  1  0
 13 14  1  0
 14 15  2  0
 15 16  1  0
 16 17  2  0
 17 18  1  0
 18 19  1  0
 18 20  2  0
 20 21  1  0
 21 22  2  0
 22 23  1  0
 23 24  2  0
 23 25  1  0
 25 26  1  0
 26 27  1  0
 27 28  2  0
 28 29  1  0
 29 30  2  0
 30 31  1  0
 31 32  2  0
 13 33  1  1
 33 34  1  0
 33 35  1  0
  5 36  1  0
 36 37  2  0
 37  2  1  0
 25 14  1  0
 32 27  1  0
 22 16  1  0
M  END
$$$$
