
     RDKit          3D

 20 21  0  0  0  0  0  0  0  0999 V2000
  -19.4712   21.1203  -32.6627 C   0  0  0  0  0  0  0  0  0  0  0  0
  -20.7363   21.7596  -32.6016 O   0  0  0  0  0  0  0  0  0  0  0  0
  -21.8227   21.1251  -32.0157 C   0  0  0  0  0  0  0  0  0  0  0  0
  -23.0260   21.7421  -31.7938 C   0  0  0  0  0  0  0  0  0  0  0  0
  -24.0553   21.0450  -31.2078 C   0  0  0  0  0  0  0  0  0  0  0  0
  -23.9360   19.7079  -30.8170 C   0  0  0  0  0  0  0  0  0  0  0  0
  -25.0926   19.0849  -30.2104 C   0  0  0  0  0  0  0  0  0  0  0  0
  -25.7924   19.6327  -29.2367 C   0  0  0  0  0  0  0  0  0  0  0  0
  -26.8832   18.9786  -28.5545 C   0  0  0  0  0  0  0  0  0  0  0  0
  -27.4581   17.8149  -28.9531 C   0  0  0  0  0  0  0  0  0  0  0  0
  -28.5109   17.2107  -28.2697 C   0  0  0  0  0  0  0  0  0  0  0  0
  -29.0866   16.0150  -28.6971 O   0  0  0  0  0  0  0  0  0  0  0  0
  -29.8684   15.1968  -27.8847 C   0  0  0  0  0  0  0  0  0  0  0  0
  -28.9618   17.8554  -27.1406 C   0  0  0  0  0  0  0  0  0  0  0  0
  -28.4206   19.0349  -26.6875 C   0  0  0  0  0  0  0  0  0  0  0  0
  -28.8739   19.6880  -25.5477 O   0  0  0  0  0  0  0  0  0  0  0  0
  -29.1015   21.0802  -25.6191 C   0  0  0  0  0  0  0  0  0  0  0  0
  -27.3830   19.5851  -27.4031 C   0  0  0  0  0  0  0  0  0  0  0  0
  -22.7484   19.1052  -31.0381 C   0  0  0  0  0  0  0  0  0  0  0  0
  -21.6955   19.8129  -31.6358 C   0  0  0  0  0  0  0  0  0  0  0  0
  1  2  1  0
  2  3  1  0
  3  4  2  0
  4  5  1  0
  5  6  2  0
  6  7  1  0
  7  8  2  0
  8  9  1  0
  9 10  2  0
 10 11  1  0
 11 12  1  0
 12 13  1  0
 11 14  2  0
 14 15  1  0
 15 16  1  0
 16 17  1  0
 15 18  2  0
  6 19  1  0
 19 20  2  0
 20  3  1  0
 18  9  1  0
M  END
$$$$
