
     RDKit          3D

 23 25  0  0  0  0  0  0  0  0999 V2000
  -18.8717   41.9971  -26.4296 C   0  0  0  0  0  0  0  0  0  0  0  0
  -18.7797   40.3071  -25.8421 S   0  0  0  0  0  0  0  0  0  0  0  0
  -18.4854   40.2064  -24.0876 C   0  0  0  0  0  0  0  0  0  0  0  0
  -18.5796   38.9921  -23.5192 N   0  0  0  0  0  0  0  0  0  0  0  0
  -18.3733   38.8019  -22.2021 C   0  0  0  0  0  0  0  0  0  0  0  0
  -18.4816   37.5014  -21.6405 N   0  0  0  0  0  0  0  0  0  0  0  0
  -18.5176   36.3303  -22.4896 C   0  0  0  0  0  0  0  0  0  0  0  0
  -19.8678   35.6887  -22.5611 C   0  0  0  0  0  0  0  0  0  0  0  0
  -19.7001   34.2147  -22.2981 C   0  0  0  0  0  0  0  0  0  0  0  0
  -18.2324   33.9710  -22.5449 C   0  0  0  0  0  0  0  0  0  0  0  0
  -17.6197   35.2399  -21.9268 C   0  0  0  0  0  0  0  0  0  0  0  0
  -18.0496   39.9233  -21.4136 C   0  0  0  0  0  0  0  0  0  0  0  0
  -17.8388   39.6045  -20.0495 N   0  0  0  0  0  4  0  0  0  0  0  0
  -17.5523   40.5298  -19.2471 O   0  0  0  0  0  0  0  0  0  0  0  0
  -17.9386   38.3444  -19.5406 O   0  0  0  0  0  1  0  0  0  0  0  0
  -17.9478   41.1691  -21.9678 C   0  0  0  0  0  0  0  0  0  0  0  0
  -17.6374   42.3465  -21.2647 N   0  0  0  0  0  0  0  0  0  0  0  0
  -17.4835   43.6875  -21.6750 C   0  0  0  0  0  0  0  0  0  0  0  0
  -18.0197   44.6636  -20.6471 C   0  0  0  0  0  0  0  0  0  0  0  0
  -16.8008   45.2486  -19.9427 C   0  0  0  0  0  0  0  0  0  0  0  0
  -15.8696   45.4291  -21.1432 C   0  0  0  0  0  0  0  0  0  0  0  0
  -15.9866   44.0445  -21.7666 C   0  0  0  0  0  0  0  0  0  0  0  0
  -18.1807   41.2391  -23.3248 N   0  0  0  0  0  0  0  0  0  0  0  0
  1  2  1  0
  2  3  1  0
  3  4  2  0
  4  5  1  0
  5  6  1  0
  6  7  1  0
  7  8  1  0
  8  9  1  0
  9 10  1  0
 10 11  1  0
  5 12  2  0
 12 13  1  0
 13 14  2  0
 13 15  1  0
 12 16  1  0
 16 17  1  0
 17 18  1  0
 18 19  1  0
 19 20  1  0
 20 21  1  0
 21 22  1  0
 16 23  2  0
 23  3  1  0
 11  7  1  0
 22 18  1  0
M  CHG  2  13   1  15  -1
M  END
$$$$
