
     RDKit          3D

 27 30  0  0  0  0  0  0  0  0999 V2000
  -10.1045   45.5858  -15.2361 C   0  0  0  0  0  0  0  0  0  0  0  0
  -10.9668   45.5531  -16.4693 C   0  0  0  0  0  0  0  0  0  0  0  0
  -10.9936   46.4524  -17.4689 N   0  0  0  0  0  0  0  0  0  0  0  0
  -11.8897   46.0637  -18.3717 N   0  0  0  0  0  0  0  0  0  0  0  0
  -12.4260   44.9196  -17.9391 C   0  0  0  0  0  0  0  0  0  0  0  0
  -13.4546   44.1663  -18.6476 C   0  0  0  0  0  0  0  0  0  0  0  0
  -13.7334   44.3508  -19.9855 C   0  0  0  0  0  0  0  0  0  0  0  0
  -14.7131   43.6195  -20.6191 C   0  0  0  0  0  0  0  0  0  0  0  0
  -15.4411   42.6729  -19.9010 C   0  0  0  0  0  0  0  0  0  0  0  0
  -16.4562   41.8964  -20.5013 N   0  0  0  0  0  0  0  0  0  0  0  0
  -16.2428   41.3790  -21.8370 C   0  0  0  0  0  0  0  0  0  0  0  0
  -17.5765   41.4951  -22.5450 C   0  0  0  0  0  0  0  0  0  0  0  0
  -18.4836   40.4155  -21.9954 C   0  0  0  0  0  0  0  0  0  0  0  0
  -18.1202   39.2172  -22.5972 O   0  0  0  0  0  0  0  0  0  0  0  0
  -18.8343   38.0580  -22.6983 C   0  0  0  0  0  0  0  0  0  0  0  0
  -20.2021   38.0159  -22.8530 C   0  0  0  0  0  0  0  0  0  0  0  0
  -20.8867   36.8081  -22.9517 C   0  0  0  0  0  0  0  0  0  0  0  0
  -22.2305   36.7630  -23.1039 F   0  0  0  0  0  0  0  0  0  0  0  0
  -20.2044   35.6163  -22.8963 C   0  0  0  0  0  0  0  0  0  0  0  0
  -18.8292   35.6360  -22.7412 C   0  0  0  0  0  0  0  0  0  0  0  0
  -18.1737   36.8560  -22.6455 C   0  0  0  0  0  0  0  0  0  0  0  0
  -16.4357   36.8630  -22.4499 Cl  0  0  0  0  0  0  0  0  0  0  0  0
  -18.2129   40.2600  -20.5021 C   0  0  0  0  0  0  0  0  0  0  0  0
  -17.7216   41.5655  -19.8811 C   0  0  0  0  0  0  0  0  0  0  0  0
  -15.1284   42.5344  -18.6025 N   0  0  0  0  0  0  0  0  0  0  0  0
  -14.1975   43.2365  -18.0214 N   0  0  0  0  0  0  0  0  0  0  0  0
  -11.8515   44.6425  -16.7984 O   0  0  0  0  0  0  0  0  0  0  0  0
  1  2  1  0
  2  3  2  0
  3  4  1  0
  4  5  2  0
  5  6  1  0
  6  7  2  0
  7  8  1  0
  8  9  2  0
  9 10  1  0
 10 11  1  0
 11 12  1  0
 12 13  1  0
 13 14  1  0
 14 15  1  0
 15 16  2  0
 16 17  1  0
 17 18  1  0
 17 19  2  0
 19 20  1  0
 20 21  2  0
 21 22  1  0
 13 23  1  0
 23 24  1  0
  9 25  1  0
 25 26  2  0
  5 27  1  0
 27  2  1  0
 26  6  1  0
 24 10  1  0
 21 15  1  0
M  END
$$$$
