
     RDKit          3D

 20 19  0  0  0  0  0  0  0  0999 V2000
  -17.3062   45.4128  -19.3147 N   0  0  0  0  0  0  0  0  0  0  0  0
  -18.4962   46.1221  -19.8294 C   0  0  1  0  0  0  0  0  0  0  0  0
  -19.3944   45.1399  -20.5336 C   0  0  0  0  0  0  0  0  0  0  0  0
  -19.2448   43.7859  -19.9511 C   0  0  0  0  0  0  0  0  0  0  0  0
  -19.3738   42.7113  -21.0095 C   0  0  0  0  0  0  0  0  0  0  0  0
  -20.4694   42.1275  -21.0952 O   0  0  0  0  0  0  0  0  0  0  0  0
  -18.3021   42.3770  -21.8694 N   0  0  0  0  0  0  0  0  0  0  0  0
  -18.2588   41.1564  -22.6496 C   0  0  1  0  0  0  0  0  0  0  0  0
  -17.2687   41.2575  -23.7904 C   0  0  0  0  0  0  0  0  0  0  0  0
  -17.3323   39.7427  -24.8217 S   0  0  0  0  0  0  0  0  0  0  0  0
  -17.8391   40.0521  -21.7732 C   0  0  0  0  0  0  0  0  0  0  0  0
  -17.0467   40.3531  -20.8176 O   0  0  0  0  0  0  0  0  0  0  0  0
  -18.2686   38.6974  -21.9421 N   0  0  0  0  0  0  0  0  0  0  0  0
  -17.8290   37.7473  -20.9487 C   0  0  0  0  0  0  0  0  0  0  0  0
  -16.8082   36.8261  -21.4329 C   0  0  0  0  0  0  0  0  0  0  0  0
  -16.5611   36.7308  -22.6535 O   0  0  0  0  0  0  0  0  0  0  0  0
  -16.0959   36.0419  -20.5489 O   0  0  0  0  0  0  0  0  0  0  0  0
  -19.2301   46.7276  -18.6906 C   0  0  0  0  0  0  0  0  0  0  0  0
  -18.7088   47.1188  -17.6392 O   0  0  0  0  0  0  0  0  0  0  0  0
  -20.6234   46.8736  -18.8014 O   0  0  0  0  0  0  0  0  0  0  0  0
  2  1  1  1
  2  3  1  0
  3  4  1  0
  4  5  1  0
  5  6  2  0
  5  7  1  0
  7  8  1  0
  8  9  1  6
  9 10  1  0
  8 11  1  0
 11 12  2  0
 11 13  1  0
 13 14  1  0
 14 15  1  0
 15 16  2  0
 15 17  1  0
  2 18  1  0
 18 19  2  0
 18 20  1  0
M  END
$$$$
