
     RDKit          3D

 27 30  0  0  0  0  0  0  0  0999 V2000
  -28.2804   28.1865  -39.4343 C   0  0  0  0  0  0  0  0  0  0  0  0
  -27.5200   27.8692  -38.2471 C   0  0  0  0  0  0  0  0  0  0  0  0
  -27.1034   29.0826  -36.8933 S   0  0  0  0  0  0  0  0  0  0  0  0
  -26.2306   27.9142  -35.9389 C   0  0  0  0  0  0  0  0  0  0  0  0
  -26.2693   26.7022  -36.6404 C   0  0  0  0  0  0  0  0  0  0  0  0
  -26.9248   26.7004  -37.7871 C   0  0  0  0  0  0  0  0  0  0  0  0
  -27.2232   25.4263  -38.5968 C   0  0  0  0  0  0  0  0  0  0  0  0
  -25.5269   25.5241  -36.1237 C   0  0  0  0  0  0  0  0  0  0  0  0
  -24.7853   24.6740  -37.0193 C   0  0  0  0  0  0  0  0  0  0  0  0
  -24.8368   23.3329  -36.9835 C   0  0  0  0  0  0  0  0  0  0  0  0
  -24.0694   22.5564  -37.8061 C   0  0  0  0  0  0  0  0  0  0  0  0
  -23.1939   23.1256  -38.7277 C   0  0  0  0  0  0  0  0  0  0  0  0
  -22.2009   22.1517  -39.7913 Cl  0  0  0  0  0  0  0  0  0  0  0  0
  -23.1603   24.5149  -38.7473 C   0  0  0  0  0  0  0  0  0  0  0  0
  -23.9278   25.2720  -37.9233 C   0  0  0  0  0  0  0  0  0  0  0  0
  -25.4550   25.1628  -34.8622 N   0  0  0  0  0  0  0  0  0  0  0  0
  -26.0755   25.8449  -33.7113 C   0  0  1  0  0  0  0  0  0  0  0  0
  -25.8251   25.1126  -32.4521 C   0  0  0  0  0  0  0  0  0  0  0  0
  -26.5859   23.8388  -32.4601 C   0  0  0  0  0  0  0  0  0  0  0  0
  -26.2384   22.6988  -31.6876 N   0  0  0  0  0  0  0  0  0  0  0  0
  -27.6086   23.7393  -33.1898 O   0  0  0  0  0  0  0  0  0  0  0  0
  -25.6014   27.2668  -33.6112 C   0  0  0  0  0  0  0  0  0  0  0  0
  -25.0584   27.9206  -32.6072 N   0  0  0  0  0  0  0  0  0  0  0  0
  -24.8275   29.1907  -32.9981 N   0  0  0  0  0  0  0  0  0  0  0  0
  -25.2268   29.3619  -34.2751 C   0  0  0  0  0  0  0  0  0  0  0  0
  -25.1953   30.5638  -35.1462 C   0  0  0  0  0  0  0  0  0  0  0  0
  -25.6968   28.1636  -34.6263 N   0  0  0  0  0  0  0  0  0  0  0  0
  1  2  1  0
  2  3  1  0
  3  4  1  0
  4  5  2  0
  5  6  1  0
  6  7  1  0
  5  8  1  0
  8  9  1  0
  9 10  2  0
 10 11  1  0
 11 12  2  0
 12 13  1  0
 12 14  1  0
 14 15  2  0
  8 16  2  0
 16 17  1  0
 17 18  1  1
 18 19  1  0
 19 20  1  0
 19 21  2  0
 17 22  1  0
 22 23  2  0
 23 24  1  0
 24 25  2  0
 25 26  1  0
 25 27  1  0
  6  2  2  0
 15  9  1  0
 27 22  1  0
 27  4  1  0
M  END
$$$$
