
     RDKit          3D

 32 35  0  0  0  0  0  0  0  0999 V2000
  -21.0163   37.3368  -25.8846 C   0  0  0  0  0  0  0  0  0  0  0  0
  -20.9913   38.7099  -25.2683 C   0  0  0  0  0  0  0  0  0  0  0  0
  -22.0054   39.6372  -25.3126 C   0  0  0  0  0  0  0  0  0  0  0  0
  -21.6178   40.7377  -24.6544 N   0  0  0  0  0  0  0  0  0  0  0  0
  -20.3782   40.5198  -24.1969 C   0  0  0  0  0  0  0  0  0  0  0  0
  -19.5308   41.4341  -23.4211 C   0  0  0  0  0  0  0  0  0  0  0  0
  -19.7458   42.7837  -23.5453 C   0  0  0  0  0  0  0  0  0  0  0  0
  -19.0067   43.6937  -22.8549 N   0  0  0  0  0  0  0  0  0  0  0  0
  -18.0325   43.2605  -22.0222 C   0  0  0  0  0  0  0  0  0  0  0  0
  -17.3035   44.2612  -21.3329 N   0  0  0  0  0  0  0  0  0  0  0  0
  -16.1082   43.9606  -20.5747 C   0  0  0  0  0  0  0  0  0  0  0  0
  -14.8600   44.4001  -21.3319 C   0  0  0  0  0  0  0  0  0  0  0  0
  -14.0806   45.3119  -20.5459 N   0  0  0  0  0  0  0  0  0  0  0  0
  -13.3147   44.8513  -19.4438 C   0  0  0  0  0  0  0  0  0  0  0  0
  -13.3334   43.5019  -19.0717 C   0  0  0  0  0  0  0  0  0  0  0  0
  -12.6088   43.0255  -18.0189 C   0  0  0  0  0  0  0  0  0  0  0  0
  -11.8350   43.8969  -17.2994 C   0  0  0  0  0  0  0  0  0  0  0  0
  -11.0357   43.5053  -16.1738 C   0  0  0  0  0  0  0  0  0  0  0  0
  -10.3909   43.1969  -15.2388 N   0  0  0  0  0  0  0  0  0  0  0  0
  -11.8085   45.2335  -17.6582 C   0  0  0  0  0  0  0  0  0  0  0  0
  -12.5364   45.6600  -18.7005 N   0  0  0  0  0  0  0  0  0  0  0  0
  -17.8390   41.9526  -21.9153 N   0  0  0  0  0  0  0  0  0  0  0  0
  -18.5389   41.0091  -22.5732 C   0  0  0  0  0  0  0  0  0  0  0  0
  -18.2536   39.5788  -22.4036 C   0  0  0  0  0  0  0  0  0  0  0  0
  -17.1527   38.9943  -22.9867 C   0  0  0  0  0  0  0  0  0  0  0  0
  -16.9230   37.6519  -22.8020 C   0  0  0  0  0  0  0  0  0  0  0  0
  -17.7964   36.8999  -22.0341 C   0  0  0  0  0  0  0  0  0  0  0  0
  -17.5242   35.1700  -21.7803 Cl  0  0  0  0  0  0  0  0  0  0  0  0
  -18.9024   37.4743  -21.4447 C   0  0  0  0  0  0  0  0  0  0  0  0
  -19.1261   38.8207  -21.6345 C   0  0  0  0  0  0  0  0  0  0  0  0
  -20.5252   39.6297  -20.9101 Cl  0  0  0  0  0  0  0  0  0  0  0  0
  -20.0130   39.2850  -24.5780 N   0  0  0  0  0  0  0  0  0  0  0  0
  1  2  1  0
  2  3  2  0
  3  4  1  0
  4  5  2  0
  5  6  1  0
  6  7  2  0
  7  8  1  0
  8  9  2  0
  9 10  1  0
 10 11  1  0
 11 12  1  0
 12 13  1  0
 13 14  1  0
 14 15  2  0
 15 16  1  0
 16 17  2  0
 17 18  1  0
 18 19  3  0
 17 20  1  0
 20 21  2  0
  9 22  1  0
 22 23  2  0
 23 24  1  0
 24 25  2  0
 25 26  1  0
 26 27  2  0
 27 28  1  0
 27 29  1  0
 29 30  2  0
 30 31  1  0
  5 32  1  0
 32  2  1  0
 23  6  1  0
 30 24  1  0
 21 14  1  0
M  END
$$$$
