
     RDKit          3D

 27 29  0  0  0  0  0  0  0  0999 V2000
  -29.7018   18.0128  -26.8760 O   0  0  0  0  0  0  0  0  0  0  0  0
  -28.8491   18.9484  -26.9474 C   0  0  0  0  0  0  0  0  0  0  0  0
  -27.8357   18.9123  -25.9880 N   0  0  0  0  0  0  0  0  0  0  0  0
  -27.1757   17.7116  -25.5336 C   0  0  0  0  0  0  0  0  0  0  0  0
  -27.4601   17.3181  -24.1352 C   0  0  0  0  0  0  0  0  0  0  0  0
  -28.3600   16.0747  -24.0468 C   0  0  0  0  0  0  0  0  0  0  0  0
  -27.6239   14.9978  -24.6050 N   0  0  0  0  0  0  0  0  0  0  0  0
  -28.1961   13.7166  -24.5125 C   0  0  0  0  0  0  0  0  0  0  0  0
  -29.3668   13.4446  -25.4054 C   0  0  0  0  0  0  0  0  0  0  0  0
  -30.4534   14.2253  -25.1494 F   0  0  0  0  0  0  0  0  0  0  0  0
  -28.9933   13.5568  -26.7519 F   0  0  0  0  0  0  0  0  0  0  0  0
  -29.7399   12.1264  -25.2332 F   0  0  0  0  0  0  0  0  0  0  0  0
  -26.8936   15.2936  -25.7977 C   0  0  0  0  0  0  0  0  0  0  0  0
  -27.5368   16.5170  -26.4301 C   0  0  0  0  0  0  0  0  0  0  0  0
  -28.9603   19.9620  -27.9703 C   0  0  0  0  0  0  0  0  0  0  0  0
  -29.6473   19.7190  -29.1252 C   0  0  0  0  0  0  0  0  0  0  0  0
  -29.7468   20.7098  -30.1174 C   0  0  0  0  0  0  0  0  0  0  0  0
  -29.1540   21.9258  -29.9313 C   0  0  0  0  0  0  0  0  0  0  0  0
  -29.2292   22.9807  -30.9486 C   0  0  0  0  0  0  0  0  0  0  0  0
  -28.0897   23.7776  -31.1015 C   0  0  0  0  0  0  0  0  0  0  0  0
  -28.0298   24.7976  -32.0154 C   0  0  0  0  0  0  0  0  0  0  0  0
  -29.1358   25.0248  -32.7932 C   0  0  0  0  0  0  0  0  0  0  0  0
  -30.2720   24.2481  -32.6568 C   0  0  0  0  0  0  0  0  0  0  0  0
  -31.3841   24.4531  -33.4168 F   0  0  0  0  0  0  0  0  0  0  0  0
  -30.3290   23.2120  -31.7269 C   0  0  0  0  0  0  0  0  0  0  0  0
  -28.4818   22.1393  -28.7818 N   0  0  0  0  0  0  0  0  0  0  0  0
  -28.3658   21.2111  -27.8068 C   0  0  0  0  0  0  0  0  0  0  0  0
  1  2  2  0
  2  3  1  0
  3  4  1  0
  4  5  1  0
  5  6  1  0
  6  7  1  0
  7  8  1  0
  8  9  1  0
  9 10  1  0
  9 11  1  0
  9 12  1  0
  7 13  1  0
 13 14  1  0
  2 15  1  0
 15 16  2  0
 16 17  1  0
 17 18  2  0
 18 19  1  0
 19 20  2  0
 20 21  1  0
 21 22  2  0
 22 23  1  0
 23 24  1  0
 23 25  2  0
 18 26  1  0
 26 27  2  0
 14  4  1  0
 27 15  1  0
 25 19  1  0
M  END
$$$$
