
     RDKit          3D

 16 18  0  0  0  0  0  0  0  0999 V2000
  -16.3153   36.0744  -20.6962 O   0  0  0  0  0  0  0  0  0  0  0  0
  -16.9234   35.2457  -21.4852 C   0  0  0  0  0  0  0  0  0  0  0  0
  -16.6820   33.9222  -21.6096 C   0  0  0  0  0  0  0  0  0  0  0  0
  -15.6995   33.2073  -20.8788 C   0  0  0  0  0  0  0  0  0  0  0  0
  -15.5357   31.8632  -21.0812 C   0  0  0  0  0  0  0  0  0  0  0  0
  -16.2843   31.1252  -21.9778 C   0  0  0  0  0  0  0  0  0  0  0  0
  -17.2362   31.8269  -22.6835 C   0  0  0  0  0  0  0  0  0  0  0  0
  -17.3932   33.1937  -22.4687 C   0  0  0  0  0  0  0  0  0  0  0  0
  -18.5011   34.3521  -23.1995 S   0  0  0  0  0  0  0  0  0  0  0  0
  -17.8930   35.7664  -22.2554 N   0  0  0  0  0  0  0  0  0  0  0  0
  -18.3943   37.0905  -22.3742 C   0  0  0  0  0  0  0  0  0  0  0  0
  -17.6652   38.2174  -22.0993 C   0  0  0  0  0  0  0  0  0  0  0  0
  -18.2250   39.4619  -22.2398 C   0  0  0  0  0  0  0  0  0  0  0  0
  -19.5304   39.6289  -22.6589 C   0  0  0  0  0  0  0  0  0  0  0  0
  -20.2599   38.4902  -22.9343 C   0  0  0  0  0  0  0  0  0  0  0  0
  -19.7024   37.2302  -22.7951 C   0  0  0  0  0  0  0  0  0  0  0  0
  1  2  2  0
  2  3  1  0
  3  4  2  0
  4  5  1  0
  5  6  2  0
  6  7  1  0
  7  8  2  0
  8  9  1  0
  9 10  1  0
 10 11  1  0
 11 12  2  0
 12 13  1  0
 13 14  2  0
 14 15  1  0
 15 16  2  0
 10  2  1  0
 16 11  1  0
  8  3  1  0
M  END
$$$$
