
     RDKit          3D

 20 21  0  0  0  0  0  0  0  0999 V2000
  -20.3400   39.8706  -29.3826 C   0  0  0  0  0  0  0  0  0  0  0  0
  -20.5170   39.0966  -28.0870 C   0  0  0  0  0  0  0  0  0  0  0  0
  -20.4784   40.1274  -26.9467 C   0  0  0  0  0  0  0  0  0  0  0  0
  -21.1582   39.4792  -25.7812 C   0  0  0  0  0  0  0  0  0  0  0  0
  -20.6238   39.6661  -24.5459 O   0  0  0  0  0  0  0  0  0  0  0  0
  -19.4788   39.3284  -23.9200 C   0  0  0  0  0  0  0  0  0  0  0  0
  -19.0621   38.0242  -23.8016 C   0  0  0  0  0  0  0  0  0  0  0  0
  -17.8810   37.6365  -23.1624 C   0  0  0  0  0  0  0  0  0  0  0  0
  -17.4700   36.2161  -23.0595 C   0  0  0  0  0  0  0  0  0  0  0  0
  -18.2068   35.4506  -22.0197 C   0  0  0  0  0  0  0  0  0  0  0  0
  -19.6112   35.9219  -21.7676 C   0  0  0  0  0  0  0  0  0  0  0  0
  -20.2034   34.7677  -21.1243 N   0  0  0  0  0  0  0  0  0  0  0  0
  -19.5025   33.6158  -21.5697 C   0  0  0  0  0  0  0  0  0  0  0  0
  -19.8735   32.4340  -21.3385 O   0  0  0  0  0  0  0  0  0  0  0  0
  -18.3556   34.0593  -22.2927 N   0  0  0  0  0  0  0  0  0  0  0  0
  -17.1055   38.6419  -22.6263 C   0  0  0  0  0  0  0  0  0  0  0  0
  -17.4871   39.9628  -22.7224 C   0  0  0  0  0  0  0  0  0  0  0  0
  -18.6477   40.3131  -23.3537 C   0  0  0  0  0  0  0  0  0  0  0  0
  -19.0587   41.6435  -23.4658 O   0  0  0  0  0  0  0  0  0  0  0  0
  -18.6925   42.6263  -22.5292 C   0  0  0  0  0  0  0  0  0  0  0  0
  1  2  1  0
  2  3  1  0
  3  4  1  0
  4  5  1  0
  5  6  1  0
  6  7  2  0
  7  8  1  0
  8  9  1  0
  9 10  1  0
 10 11  1  0
 11 12  1  0
 12 13  1  0
 13 14  2  0
 13 15  1  0
  8 16  2  0
 16 17  1  0
 17 18  2  0
 18 19  1  0
 19 20  1  0
 18  6  1  0
 15 10  1  0
M  END
$$$$
