
     RDKit          3D

 21 22  0  0  0  0  0  0  0  0999 V2000
  -37.3124   12.5990  -23.3370 O   0  0  0  0  0  0  0  0  0  0  0  0
  -36.3594   13.3199  -23.6696 C   0  0  0  0  0  0  0  0  0  0  0  0
  -35.7622   14.1213  -22.7155 O   0  0  0  0  0  0  0  0  0  0  0  0
  -35.8583   13.3317  -25.0664 C   0  0  0  0  0  0  0  0  0  0  0  0
  -34.5293   13.9686  -25.1151 C   0  0  0  0  0  0  0  0  0  0  0  0
  -33.4120   13.2373  -24.7667 C   0  0  0  0  0  0  0  0  0  0  0  0
  -32.1573   13.8097  -24.8038 C   0  0  0  0  0  0  0  0  0  0  0  0
  -30.4915   12.6451  -24.2617 I   0  0  0  0  0  0  0  0  0  0  0  0
  -31.9875   15.1302  -25.1908 C   0  0  0  0  0  0  0  0  0  0  0  0
  -30.7288   15.6397  -25.2081 O   0  0  0  0  0  0  0  0  0  0  0  0
  -29.8733   15.7393  -26.2514 C   0  0  0  0  0  0  0  0  0  0  0  0
  -30.1090   15.0688  -27.4220 C   0  0  0  0  0  0  0  0  0  0  0  0
  -29.2561   15.1478  -28.5082 C   0  0  0  0  0  0  0  0  0  0  0  0
  -28.1187   15.9453  -28.3875 C   0  0  0  0  0  0  0  0  0  0  0  0
  -27.2535   16.0297  -29.4797 O   0  0  0  0  0  0  0  0  0  0  0  0
  -27.8571   16.6228  -27.2394 C   0  0  0  0  0  0  0  0  0  0  0  0
  -26.1235   17.8105  -27.1187 I   0  0  0  0  0  0  0  0  0  0  0  0
  -28.7484   16.5137  -26.1646 C   0  0  0  0  0  0  0  0  0  0  0  0
  -33.0910   15.8520  -25.5347 C   0  0  0  0  0  0  0  0  0  0  0  0
  -32.7815   17.8636  -26.1186 I   0  0  0  0  0  0  0  0  0  0  0  0
  -34.3297   15.2835  -25.4970 C   0  0  0  0  0  0  0  0  0  0  0  0
  1  2  2  0
  2  3  1  0
  2  4  1  0
  4  5  1  0
  5  6  2  0
  6  7  1  0
  7  8  1  0
  7  9  2  0
  9 10  1  0
 10 11  1  0
 11 12  2  0
 12 13  1  0
 13 14  2  0
 14 15  1  0
 14 16  1  0
 16 17  1  0
 16 18  2  0
  9 19  1  0
 19 20  1  0
 19 21  2  0
 21  5  1  0
 18 11  1  0
M  END
$$$$
