
     RDKit          3D

 39 43  0  0  0  0  0  0  0  0999 V2000
  -23.9844   15.4136  -24.2268 C   0  0  0  0  0  0  0  0  0  0  0  0
  -25.3793   15.7928  -24.5660 C   0  0  0  0  0  0  0  0  0  0  0  0
  -25.9989   16.8057  -23.9058 C   0  0  0  0  0  0  0  0  0  0  0  0
  -27.3083   17.1621  -24.2260 C   0  0  0  0  0  0  0  0  0  0  0  0
  -28.0197   16.5027  -25.2200 C   0  0  0  0  0  0  0  0  0  0  0  0
  -29.3471   16.8287  -25.5832 N   0  0  0  0  0  0  0  0  0  0  0  0
  -30.3441   15.9254  -25.5511 N   0  0  0  0  0  0  0  0  0  0  0  0
  -31.4878   16.4974  -25.9382 C   0  0  0  0  0  0  0  0  0  0  0  0
  -32.8057   15.8170  -26.0316 C   0  0  0  0  0  0  0  0  0  0  0  0
  -33.9040   16.8357  -25.7818 C   0  0  0  0  0  0  0  0  0  0  0  0
  -32.9944   15.1558  -27.3803 C   0  0  0  0  0  0  0  0  0  0  0  0
  -32.9447   14.7577  -24.9420 C   0  0  0  0  0  0  0  0  0  0  0  0
  -31.1667   17.8203  -26.2209 C   0  0  0  0  0  0  0  0  0  0  0  0
  -29.8197   18.0139  -25.9937 C   0  0  0  0  0  0  0  0  0  0  0  0
  -29.0204   19.1798  -26.1340 N   0  0  0  0  0  0  0  0  0  0  0  0
  -28.5431   19.5219  -27.4302 C   0  0  0  0  0  0  0  0  0  0  0  0
  -28.6722   18.6815  -28.3544 O   0  0  0  0  0  0  0  0  0  0  0  0
  -27.9327   20.7480  -27.7449 N   0  0  0  0  0  0  0  0  0  0  0  0
  -27.4969   21.0882  -29.0641 C   0  0  0  0  0  0  0  0  0  0  0  0
  -28.5002   21.3398  -29.9904 C   0  0  0  0  0  0  0  0  0  0  0  0
  -28.2332   21.6787  -31.3031 C   0  0  0  0  0  0  0  0  0  0  0  0
  -26.9113   21.7631  -31.6805 C   0  0  0  0  0  0  0  0  0  0  0  0
  -26.6211   22.1010  -32.9931 O   0  0  0  0  0  0  0  0  0  0  0  0
  -26.5594   23.4449  -33.3997 C   0  0  0  0  0  0  0  0  0  0  0  0
  -25.8449   23.6071  -34.7158 C   0  0  0  0  0  0  0  0  0  0  0  0
  -25.8253   24.9574  -35.2102 N   0  0  0  0  0  0  0  0  0  0  0  0
  -24.9350   25.7204  -34.3452 C   0  0  0  0  0  0  0  0  0  0  0  0
  -24.8392   27.1614  -34.8048 C   0  0  0  0  0  0  0  0  0  0  0  0
  -24.8622   27.2180  -36.1983 O   0  0  0  0  0  0  0  0  0  0  0  0
  -24.3180   26.0417  -36.7320 C   0  0  0  0  0  0  0  0  0  0  0  0
  -25.3696   24.9617  -36.5844 C   0  0  0  0  0  0  0  0  0  0  0  0
  -25.8936   21.5148  -30.7673 C   0  0  0  0  0  0  0  0  0  0  0  0
  -24.5838   21.6066  -31.1722 C   0  0  0  0  0  0  0  0  0  0  0  0
  -23.5656   21.3591  -30.2622 C   0  0  0  0  0  0  0  0  0  0  0  0
  -23.8967   21.0279  -28.9764 C   0  0  0  0  0  0  0  0  0  0  0  0
  -25.2108   20.9285  -28.5422 C   0  0  0  0  0  0  0  0  0  0  0  0
  -26.1988   21.1737  -29.4443 C   0  0  0  0  0  0  0  0  0  0  0  0
  -27.3494   15.4745  -25.8690 C   0  0  0  0  0  0  0  0  0  0  0  0
  -26.0575   15.1171  -25.5590 C   0  0  0  0  0  0  0  0  0  0  0  0
  1  2  1  0
  2  3  2  0
  3  4  1  0
  4  5  2  0
  5  6  1  0
  6  7  1  0
  7  8  2  0
  8  9  1  0
  9 10  1  0
  9 11  1  0
  9 12  1  0
  8 13  1  0
 13 14  2  0
 14 15  1  0
 15 16  1  0
 16 17  2  0
 16 18  1  0
 18 19  1  0
 19 20  2  0
 20 21  1  0
 21 22  2  0
 22 23  1  0
 23 24  1  0
 24 25  1  0
 25 26  1  0
 26 27  1  0
 27 28  1  0
 28 29  1  0
 29 30  1  0
 30 31  1  0
 22 32  1  0
 32 33  2  0
 33 34  1  0
 34 35  2  0
 35 36  1  0
 36 37  2  0
  5 38  1  0
 38 39  2  0
 39  2  1  0
 14  6  1  0
 37 19  1  0
 31 26  1  0
 37 32  1  0
M  END
$$$$
