
     RDKit          3D

 14 14  0  0  0  0  0  0  0  0999 V2000
  -18.6562   42.6658  -22.9162 C   0  0  0  0  0  0  0  0  0  0  0  0
  -18.1848   41.2519  -22.6652 C   0  0  0  0  0  0  0  0  0  0  0  0
  -16.9828   41.1126  -22.3576 O   0  0  0  0  0  0  0  0  0  0  0  0
  -19.1493   40.2345  -22.8074 N   0  0  0  0  0  0  0  0  0  0  0  0
  -18.8838   38.9924  -22.8642 C   0  0  0  0  0  0  0  0  0  0  0  0
  -18.2064   37.9999  -21.4511 S   0  0  0  0  0  0  0  0  0  0  0  0
  -18.1929   36.4207  -22.5352 C   0  0  0  0  0  0  0  0  0  0  0  0
  -17.6091   34.9397  -21.7635 S   0  0  0  0  0  6  0  0  0  0  0  0
  -18.8634   33.7709  -21.7766 N   0  0  0  0  0  0  0  0  0  0  0  0
  -16.4479   34.4777  -22.5553 O   0  0  0  0  0  0  0  0  0  0  0  0
  -17.1375   35.2183  -20.3662 O   0  0  0  0  0  0  0  0  0  0  0  0
  -18.6078   36.8834  -23.5041 N   0  0  0  0  0  0  0  0  0  0  0  0
  -18.9831   38.0644  -23.8367 N   0  0  0  0  0  0  0  0  0  0  0  0
  -19.5000   38.4581  -25.1639 C   0  0  0  0  0  0  0  0  0  0  0  0
  1  2  1  0
  2  3  2  0
  2  4  1  0
  4  5  2  0
  5  6  1  0
  6  7  1  0
  7  8  1  0
  8  9  1  0
  8 10  2  0
  8 11  2  0
  7 12  2  0
 12 13  1  0
 13 14  1  0
 13  5  1  0
M  END
$$$$
