
     RDKit          3D

 18 18  0  0  0  0  0  0  0  0999 V2000
  -17.8315   32.0183  -21.7485 N   0  0  0  0  0  0  0  0  0  0  0  0
  -18.2608   33.3457  -21.7577 C   0  0  0  0  0  0  0  0  0  0  0  0
  -18.9645   33.7160  -20.7570 O   0  0  0  0  0  0  0  0  0  0  0  0
  -17.9946   34.3496  -22.7798 C   0  0  2  0  0  0  0  0  0  0  0  0
  -16.4792   34.8715  -22.6337 C   0  0  0  0  0  0  0  0  0  0  0  0
  -16.4802   36.3815  -22.8399 C   0  0  0  0  0  0  0  0  0  0  0  0
  -17.2774   37.2206  -21.9027 C   0  0  2  0  0  0  0  0  0  0  0  0
  -18.1780   36.1532  -21.1645 C   0  0  0  0  0  0  0  0  0  0  0  0
  -18.5494   35.6223  -22.5186 N   0  0  0  0  0  0  0  0  0  0  0  0
  -19.1897   36.7274  -23.0542 C   0  0  0  0  0  0  0  0  0  0  0  0
  -20.2036   36.7396  -23.7680 O   0  0  0  0  0  0  0  0  0  0  0  0
  -18.4035   37.8979  -22.5975 N   0  0  0  0  0  0  0  0  0  0  0  0
  -18.6678   39.1757  -22.7790 O   0  0  0  0  0  0  0  0  0  0  0  0
  -20.0456   39.5022  -23.6192 S   0  0  0  0  0  6  0  0  0  0  0  0
  -20.2283   41.0147  -23.6340 O   0  0  0  0  0  0  0  0  0  0  0  0
  -19.9987   39.0789  -25.0567 O   0  0  0  0  0  0  0  0  0  0  0  0
  -21.4136   38.8882  -22.8368 O   0  0  0  0  0  1  0  0  0  0  0  0
  -18.1038   35.9928  -22.5515 Na  0  0  0  0  0 15  0  0  0  0  0  0
  1  2  1  0
  2  3  2  0
  4  2  1  1
  4  5  1  0
  5  6  1  0
  7  6  1  6
  7  8  1  0
  8  9  1  0
  9 10  1  0
 10 11  2  0
 10 12  1  0
 12 13  1  0
 13 14  1  0
 14 15  2  0
 14 16  2  0
 14 17  1  0
  9  4  1  0
 12  7  1  0
M  CHG  2  17  -1  18   1
M  END
$$$$
