
     RDKit          3D

 13 13  0  0  0  0  0  0  0  0999 V2000
  -17.7597   39.1558  -21.9856 O   0  0  0  0  0  0  0  0  0  0  0  0
  -18.8208   38.5034  -22.0381 C   0  0  0  0  0  0  0  0  0  0  0  0
  -20.0234   39.1598  -21.8900 O   0  0  0  0  0  0  0  0  0  0  0  0
  -18.7279   37.0512  -22.2569 C   0  0  0  0  0  0  0  0  0  0  0  0
  -20.2016   36.1287  -22.6686 S   0  0  0  0  0  0  0  0  0  0  0  0
  -17.6036   36.4013  -22.1764 C   0  0  0  0  0  0  0  0  0  0  0  0
  -17.4497   34.9490  -22.1461 C   0  0  0  0  0  0  0  0  0  0  0  0
  -17.7842   34.1911  -23.2774 C   0  0  0  0  0  0  0  0  0  0  0  0
  -17.6277   32.8263  -23.2494 C   0  0  0  0  0  0  0  0  0  0  0  0
  -17.1456   32.1723  -22.1303 C   0  0  0  0  0  0  0  0  0  0  0  0
  -16.9710   30.0799  -22.2503 I   0  0  0  0  0  0  0  0  0  0  0  0
  -16.8120   32.8977  -21.0122 C   0  0  0  0  0  0  0  0  0  0  0  0
  -16.9723   34.2645  -21.0493 C   0  0  0  0  0  0  0  0  0  0  0  0
  1  2  2  0
  2  3  1  0
  2  4  1  0
  4  5  1  0
  4  6  2  0
  6  7  1  0
  7  8  2  0
  8  9  1  0
  9 10  2  0
 10 11  1  0
 10 12  1  0
 12 13  2  0
 13  7  1  0
M  END
$$$$
