
     RDKit          3D

 49 55  0  0  0  0  0  0  0  0999 V2000
  -19.8247   56.0348  -14.9452 C   0  0  0  0  0  0  0  0  0  0  0  0
  -18.7881   55.2349  -14.1957 C   0  0  0  0  0  0  0  0  0  0  0  0
  -17.7261   54.6706  -15.1324 C   0  0  0  0  0  0  0  0  0  0  0  0
  -16.5703   54.1453  -14.3076 C   0  0  0  0  0  0  0  0  0  0  0  0
  -18.3734   53.5334  -15.8134 N   0  0  0  0  0  0  0  0  0  0  0  0
  -19.6109   53.4845  -16.2702 N   0  0  0  0  0  0  0  0  0  0  0  0
  -19.8077   52.2751  -16.8227 C   0  0  0  0  0  0  0  0  0  0  0  0
  -18.6943   51.5307  -16.7265 N   0  0  0  0  0  0  0  0  0  0  0  0
  -18.4606   50.2094  -17.1737 C   0  0  0  0  0  0  0  0  0  0  0  0
  -19.3453   49.5784  -18.0190 C   0  0  0  0  0  0  0  0  0  0  0  0
  -19.1308   48.2792  -18.4593 C   0  0  0  0  0  0  0  0  0  0  0  0
  -17.9989   47.5983  -18.0388 C   0  0  0  0  0  0  0  0  0  0  0  0
  -17.8295   46.2808  -18.4933 N   0  0  0  0  0  0  0  0  0  0  0  0
  -16.5498   45.6021  -18.3051 C   0  0  0  0  0  0  0  0  0  0  0  0
  -16.3565   44.3753  -19.1198 C   0  0  0  0  0  0  0  0  0  0  0  0
  -17.2666   44.1599  -20.1972 N   0  0  0  0  0  0  0  0  0  0  0  0
  -17.1794   42.9538  -20.9946 C   0  0  0  0  0  0  0  0  0  0  0  0
  -17.9342   42.8220  -22.1282 C   0  0  0  0  0  0  0  0  0  0  0  0
  -17.8764   41.6652  -22.9151 C   0  0  0  0  0  0  0  0  0  0  0  0
  -17.0588   40.6177  -22.5772 C   0  0  0  0  0  0  0  0  0  0  0  0
  -16.9798   39.4520  -23.3443 O   0  0  0  0  0  0  0  0  0  0  0  0
  -18.0452   38.5167  -23.2744 C   0  0  0  0  0  0  0  0  0  0  0  0
  -17.5996   37.1135  -23.0230 C   0  0  1  0  0  0  0  0  0  0  0  0
  -17.9849   36.6387  -21.6623 C   0  0  0  0  0  0  0  0  0  0  0  0
  -18.7549   35.5285  -21.8599 O   0  0  0  0  0  0  0  0  0  0  0  0
  -18.5206   35.1083  -23.2231 C   0  0  2  0  0  0  0  0  0  0  0  0
  -19.9079   34.6253  -23.5844 C   0  0  0  0  0  0  0  0  0  0  0  0
  -20.4688   33.5044  -22.9501 N   0  0  0  0  0  0  0  0  0  0  0  0
  -20.3707   33.1926  -21.6400 C   0  0  0  0  0  0  0  0  0  0  0  0
  -20.9988   32.0292  -21.4579 N   0  0  0  0  0  0  0  0  0  0  0  0
  -21.5003   31.5810  -22.6166 C   0  0  0  0  0  0  0  0  0  0  0  0
  -21.1618   32.5077  -23.5270 N   0  0  0  0  0  0  0  0  0  0  0  0
  -17.4881   34.0489  -23.1907 C   0  0  0  0  0  0  0  0  0  0  0  0
  -17.2227   33.3468  -24.3666 C   0  0  0  0  0  0  0  0  0  0  0  0
  -16.2164   32.4345  -24.4015 C   0  0  0  0  0  0  0  0  0  0  0  0
  -15.4575   32.2039  -23.2712 C   0  0  0  0  0  0  0  0  0  0  0  0
  -14.1626   31.0354  -23.3185 Cl  0  0  0  0  0  0  0  0  0  0  0  0
  -15.6935   32.8774  -22.0953 C   0  0  0  0  0  0  0  0  0  0  0  0
  -16.7394   33.8144  -22.0808 C   0  0  0  0  0  0  0  0  0  0  0  0
  -17.0920   34.5610  -20.5236 Cl  0  0  0  0  0  0  0  0  0  0  0  0
  -18.1449   36.1973  -23.9217 O   0  0  0  0  0  0  0  0  0  0  0  0
  -16.3058   40.7583  -21.4384 C   0  0  0  0  0  0  0  0  0  0  0  0
  -16.3536   41.9085  -20.6433 C   0  0  0  0  0  0  0  0  0  0  0  0
  -18.2805   45.1434  -20.5007 C   0  0  0  0  0  0  0  0  0  0  0  0
  -18.8909   45.5666  -19.1455 C   0  0  0  0  0  0  0  0  0  0  0  0
  -17.1082   48.1978  -17.2036 C   0  0  0  0  0  0  0  0  0  0  0  0
  -17.3487   49.5113  -16.7740 C   0  0  0  0  0  0  0  0  0  0  0  0
  -17.8157   52.3458  -16.0903 C   0  0  0  0  0  0  0  0  0  0  0  0
  -16.6333   52.0203  -15.8021 O   0  0  0  0  0  0  0  0  0  0  0  0
  1  2  1  0
  2  3  1  0
  3  4  1  0
  3  5  1  0
  5  6  1  0
  6  7  2  0
  7  8  1  0
  8  9  1  0
  9 10  2  0
 10 11  1  0
 11 12  2  0
 12 13  1  0
 13 14  1  0
 14 15  1  0
 15 16  1  0
 16 17  1  0
 17 18  2  0
 18 19  1  0
 19 20  2  0
 20 21  1  0
 21 22  1  0
 23 22  1  6
 23 24  1  0
 24 25  1  0
 25 26  1  0
 26 27  1  6
 27 28  1  0
 28 29  1  0
 29 30  2  0
 30 31  1  0
 31 32  2  0
 26 33  1  0
 33 34  2  0
 34 35  1  0
 35 36  2  0
 36 37  1  0
 36 38  1  0
 38 39  2  0
 39 40  1  0
 26 41  1  0
 20 42  1  0
 42 43  2  0
 16 44  1  0
 44 45  1  0
 12 46  1  0
 46 47  2  0
  8 48  1  0
 48 49  2  0
 48  5  1  0
 47  9  1  0
 45 13  1  0
 43 17  1  0
 41 23  1  0
 32 28  1  0
 39 33  1  0
M  END
$$$$
