
     RDKit          3D

 27 29  0  0  0  0  0  0  0  0999 V2000
  -23.2494   23.3334  -32.2385 C   0  0  0  0  0  0  0  0  0  0  0  0
  -24.6137   23.0722  -32.0441 O   0  0  0  0  0  0  0  0  0  0  0  0
  -25.2331   21.8895  -32.3333 N   0  0  0  0  0  0  0  0  0  0  0  0
  -26.2661   21.5142  -31.6478 C   0  0  0  0  0  0  0  0  0  0  0  0
  -26.2653   21.8053  -30.2624 N   0  0  0  0  0  0  0  0  0  0  0  0
  -27.0270   21.1001  -29.2911 C   0  0  0  0  0  0  0  0  0  0  0  0
  -26.9922   21.3479  -27.9721 N   0  0  0  0  0  0  0  0  0  0  0  0
  -27.8304   20.5101  -27.2944 C   0  0  0  0  0  0  0  0  0  0  0  0
  -28.1197   20.3914  -25.9765 N   0  0  0  0  0  0  0  0  0  0  0  0
  -29.0087   19.4424  -25.6330 C   0  0  0  0  0  0  0  0  0  0  0  0
  -29.6049   18.6241  -26.5575 C   0  0  0  0  0  0  0  0  0  0  0  0
  -29.2677   18.7960  -27.8815 C   0  0  0  0  0  0  0  0  0  0  0  0
  -29.8651   17.9494  -28.9565 C   0  0  0  0  0  0  0  0  0  0  0  0
  -31.2151   18.5048  -29.4247 C   0  0  0  0  0  0  0  0  0  0  0  0
  -30.1584   16.7055  -28.3734 O   0  0  0  0  0  0  0  0  0  0  0  0
  -29.3460   15.6062  -28.2946 C   0  0  0  0  0  0  0  0  0  0  0  0
  -29.0252   15.0548  -27.0728 C   0  0  0  0  0  0  0  0  0  0  0  0
  -28.2164   13.9547  -26.9361 C   0  0  0  0  0  0  0  0  0  0  0  0
  -27.6871   13.3542  -28.0589 C   0  0  0  0  0  0  0  0  0  0  0  0
  -26.8177   12.1687  -27.8808 C   0  0  0  0  0  0  0  0  0  0  0  0
  -26.3126   11.6555  -29.2063 C   0  0  0  0  0  0  0  0  0  0  0  0
  -25.7059   12.4785  -26.9208 C   0  0  0  0  0  0  0  0  0  0  0  0
  -27.6315   11.0303  -27.2602 C   0  0  0  0  0  0  0  0  0  0  0  0
  -27.9979   13.8921  -29.2797 C   0  0  0  0  0  0  0  0  0  0  0  0
  -28.8252   15.0170  -29.4166 C   0  0  0  0  0  0  0  0  0  0  0  0
  -28.3807   19.7389  -28.2485 N   0  0  0  0  0  0  0  0  0  0  0  0
  -27.8999   20.0929  -29.4368 N   0  0  0  0  0  0  0  0  0  0  0  0
  1  2  1  0
  2  3  1  0
  3  4  2  0
  4  5  1  0
  5  6  1  0
  6  7  1  0
  7  8  2  0
  8  9  1  0
  9 10  2  0
 10 11  1  0
 11 12  2  0
 12 13  1  0
 13 14  1  0
 13 15  1  0
 15 16  1  0
 16 17  2  0
 17 18  1  0
 18 19  2  0
 19 20  1  0
 20 21  1  0
 20 22  1  0
 20 23  1  0
 19 24  1  0
 24 25  2  0
 12 26  1  0
 26 27  1  0
 27  6  2  0
 26  8  1  0
 25 16  1  0
M  END
$$$$
