
     RDKit          3D

 37 41  0  0  0  0  0  0  0  0999 V2000
    4.2124   15.6861  -21.2136 C   0  0  0  0  0  0  0  0  0  0  0  0
    3.3151   16.8318  -21.1866 N   0  0  0  0  0  0  0  0  0  0  0  0
    2.0752   16.7902  -21.8663 C   0  0  0  0  0  0  0  0  0  0  0  0
    2.0309   16.5202  -23.0892 O   0  0  0  0  0  0  0  0  0  0  0  0
    0.8309   17.0592  -21.1659 C   0  0  0  0  0  0  0  0  0  0  0  0
    0.4049   16.2255  -20.1303 C   0  0  0  0  0  0  0  0  0  0  0  0
   -0.7683   16.4272  -19.4377 C   0  0  0  0  0  0  0  0  0  0  0  0
   -1.5358   17.5138  -19.8099 C   0  0  0  0  0  0  0  0  0  0  0  0
   -2.6969   17.7473  -19.1538 F   0  0  0  0  0  0  0  0  0  0  0  0
   -1.1270   18.3445  -20.8300 C   0  0  0  0  0  0  0  0  0  0  0  0
    0.0698   18.1241  -21.5236 C   0  0  0  0  0  0  0  0  0  0  0  0
    0.4722   19.0479  -22.6056 C   0  0  0  0  0  0  0  0  0  0  0  0
    1.8271   19.1027  -22.8197 F   0  0  0  0  0  0  0  0  0  0  0  0
   -0.1253   18.6522  -23.7951 F   0  0  0  0  0  0  0  0  0  0  0  0
   -0.0540   20.2912  -22.3099 F   0  0  0  0  0  0  0  0  0  0  0  0
    3.7114   18.0066  -20.4532 C   0  0  0  0  0  0  0  0  0  0  0  0
    3.8493   17.7321  -18.9751 C   0  0  0  0  0  0  0  0  0  0  0  0
    3.6632   18.9650  -18.1303 C   0  0  0  0  0  0  0  0  0  0  0  0
    3.9096   20.2034  -18.8052 N   0  0  0  0  0  0  0  0  0  0  0  0
    4.5279   21.3351  -18.2024 C   0  0  0  0  0  0  0  0  0  0  0  0
    5.8222   21.2971  -17.8076 N   0  0  0  0  0  0  0  0  0  0  0  0
    6.4428   22.3205  -17.2662 N   0  0  0  0  0  0  0  0  0  0  0  0
    5.8187   23.5211  -17.0563 C   0  0  0  0  0  0  0  0  0  0  0  0
    6.5808   24.6057  -16.4606 C   0  0  0  0  0  0  0  0  0  0  0  0
    6.9759   24.6127  -15.1142 C   0  0  0  0  0  0  0  0  0  0  0  0
    7.6243   25.7991  -14.8744 C   0  0  0  0  0  0  0  0  0  0  0  0
    7.6178   26.4779  -16.0320 N   0  0  0  0  0  0  0  0  0  0  0  0
    6.9991   25.7689  -16.9666 N   0  0  0  0  0  0  0  0  0  0  0  0
    6.7834   26.2345  -18.3222 C   0  0  0  0  0  0  0  0  0  0  0  0
    4.5030   23.5981  -17.4468 C   0  0  0  0  0  0  0  0  0  0  0  0
    3.8418   24.7945  -17.2729 C   0  0  0  0  0  0  0  0  0  0  0  0
    2.5131   24.8598  -17.6845 C   0  0  0  0  0  0  0  0  0  0  0  0
    1.8631   23.7850  -18.2472 C   0  0  0  0  0  0  0  0  0  0  0  0
    2.5262   22.5835  -18.4252 C   0  0  0  0  0  0  0  0  0  0  0  0
    3.8384   22.5019  -18.0257 C   0  0  0  0  0  0  0  0  0  0  0  0
    3.5232   20.3993  -20.2085 C   0  0  0  0  0  0  0  0  0  0  0  0
    2.7633   19.1779  -20.6837 C   0  0  0  0  0  0  0  0  0  0  0  0
  1  2  1  0
  2  3  1  0
  3  4  2  0
  3  5  1  0
  5  6  2  0
  6  7  1  0
  7  8  2  0
  8  9  1  0
  8 10  1  0
 10 11  2  0
 11 12  1  0
 12 13  1  0
 12 14  1  0
 12 15  1  0
  2 16  1  0
 16 17  1  0
 17 18  1  0
 18 19  1  0
 19 20  1  0
 20 21  2  0
 21 22  1  0
 22 23  2  0
 23 24  1  0
 24 25  2  0
 25 26  1  0
 26 27  2  0
 27 28  1  0
 28 29  1  0
 23 30  1  0
 30 31  2  0
 31 32  1  0
 32 33  2  0
 33 34  1  0
 34 35  2  0
 19 36  1  0
 36 37  1  0
 11  5  1  0
 37 16  1  0
 35 20  1  0
 28 24  1  0
 35 30  1  0
M  END
$$$$
