
     RDKit          3D

 23 26  0  0  0  0  0  0  0  0999 V2000
  -18.4453   14.1137  -31.3091 O   0  0  0  0  0  0  0  0  0  0  0  0
  -17.3514   14.7509  -31.5103 C   0  0  0  0  0  0  0  0  0  0  0  0
  -16.2374   14.5319  -30.5810 C   0  0  0  0  0  0  0  0  0  0  0  0
  -15.5259   13.3674  -30.4259 C   0  0  0  0  0  0  0  0  0  0  0  0
  -14.5609   13.5706  -29.4375 C   0  0  0  0  0  0  0  0  0  0  0  0
  -13.5692   12.5802  -28.9467 C   0  0  0  0  0  0  0  0  0  0  0  0
  -13.5693   12.2578  -27.4961 C   0  0  0  0  0  0  0  0  0  0  0  0
  -12.4419   13.0893  -28.0284 C   0  0  0  0  0  0  0  0  0  0  0  0
  -14.7277   14.8129  -29.0508 O   0  0  0  0  0  0  0  0  0  0  0  0
  -15.6957   15.3895  -29.7018 N   0  0  0  0  0  0  0  0  0  0  0  0
  -17.3004   15.6130  -32.6073 N   0  0  0  0  0  0  0  0  0  0  0  0
  -18.4658   15.6843  -33.4579 C   0  0  0  0  0  0  0  0  0  0  0  0
  -19.3744   16.7629  -32.9185 C   0  0  0  0  0  0  0  0  0  0  0  0
  -19.9340   17.6652  -33.9655 C   0  0  0  0  0  0  0  0  0  0  0  0
  -20.4506   16.8186  -35.0997 C   0  0  0  0  0  0  0  0  0  0  0  0
  -19.3862   15.9574  -35.7106 C   0  0  0  0  0  0  0  0  0  0  0  0
  -18.1196   15.8908  -34.9046 C   0  0  0  0  0  0  0  0  0  0  0  0
  -16.1169   16.3844  -32.9224 C   0  0  0  0  0  0  0  0  0  0  0  0
  -16.1949   17.8401  -32.6653 C   0  0  0  0  0  0  0  0  0  0  0  0
  -16.6015   18.7580  -33.7481 C   0  0  0  0  0  0  0  0  0  0  0  0
  -15.9861   18.3993  -35.0631 C   0  0  0  0  0  0  0  0  0  0  0  0
  -14.9360   17.3310  -34.9169 C   0  0  0  0  0  0  0  0  0  0  0  0
  -15.4978   16.1004  -34.2413 C   0  0  0  0  0  0  0  0  0  0  0  0
  1  2  2  0
  2  3  1  0
  3  4  1  0
  4  5  2  0
  5  6  1  0
  6  7  1  0
  7  8  1  0
  5  9  1  0
  9 10  1  0
  2 11  1  0
 11 12  1  0
 12 13  1  0
 13 14  1  0
 14 15  1  0
 15 16  1  0
 16 17  1  0
 11 18  1  0
 18 19  1  0
 19 20  1  0
 20 21  1  0
 21 22  1  0
 22 23  1  0
 10  3  2  0
 17 12  1  0
 23 18  1  0
  8  6  1  0
M  END
$$$$
