
     RDKit          3D

 36 41  0  0  0  0  0  0  0  0999 V2000
  -35.5547   14.6593  -24.3766 C   0  0  0  0  0  0  0  0  0  0  0  0
  -34.3471   13.6984  -24.4433 C   0  0  0  0  0  0  0  0  0  0  0  0
  -33.2284   14.5622  -24.8618 C   0  0  0  0  0  0  0  0  0  0  0  0
  -33.3678   15.9341  -24.9282 C   0  0  0  0  0  0  0  0  0  0  0  0
  -32.2259   16.7038  -25.1327 C   0  0  0  0  0  0  0  0  0  0  0  0
  -30.9632   16.1024  -25.2468 C   0  0  0  0  0  0  0  0  0  0  0  0
  -30.8741   14.7525  -25.1863 C   0  0  0  0  0  0  0  0  0  0  0  0
  -31.9623   13.9086  -25.0081 C   0  0  0  0  0  0  0  0  0  0  0  0
  -31.8931   12.5745  -25.3118 N   0  0  0  0  0  0  0  0  0  0  0  0
  -31.7872   11.3028  -24.7799 C   0  0  0  0  0  0  0  0  0  0  0  0
  -32.9179   10.3686  -25.2393 C   0  0  0  0  0  0  0  0  0  0  0  0
  -33.9508   10.9088  -26.1445 C   0  0  0  0  0  0  0  0  0  0  0  0
  -35.2636   10.9973  -25.5434 N   0  0  0  0  0  0  0  0  0  0  0  0
  -35.7664    9.8827  -24.8591 C   0  0  0  0  0  0  0  0  0  0  0  0
  -37.1107   10.3669  -24.2404 C   0  0  0  0  0  0  0  0  0  0  0  0
  -38.0281   10.6910  -25.1959 O   0  0  0  0  0  0  0  0  0  0  0  0
  -37.5446   11.3492  -26.3099 C   0  0  0  0  0  0  0  0  0  0  0  0
  -36.1807   11.9241  -26.0734 C   0  0  0  0  0  0  0  0  0  0  0  0
  -33.6346   12.2378  -26.8052 C   0  0  0  0  0  0  0  0  0  0  0  0
  -32.1091   12.4187  -26.8764 C   0  0  0  0  0  0  0  0  0  0  0  0
  -29.8151   17.0020  -25.2298 C   0  0  0  0  0  0  0  0  0  0  0  0
  -30.0448   17.9146  -23.9795 C   0  0  0  0  0  0  0  0  0  0  0  0
  -28.4575   16.4642  -25.3047 C   0  0  0  0  0  0  0  0  0  0  0  0
  -29.9920   18.0434  -26.3726 C   0  0  0  0  0  0  0  0  0  0  0  0
  -29.1937   18.5076  -27.2704 N   0  0  0  0  0  0  0  0  0  0  0  0
  -29.8865   19.5315  -27.9777 C   0  0  0  0  0  0  0  0  0  0  0  0
  -29.5736   20.2898  -29.0769 C   0  0  0  0  0  0  0  0  0  0  0  0
  -30.5470   21.1372  -29.5988 C   0  0  0  0  0  0  0  0  0  0  0  0
  -30.3096   21.9710  -30.8682 C   0  0  0  0  0  0  0  0  0  0  0  0
  -30.1433   22.5707  -31.7606 N   0  0  0  0  0  0  0  0  0  0  0  0
  -31.7946   21.2347  -29.0256 C   0  0  0  0  0  0  0  0  0  0  0  0
  -32.0322   20.4319  -27.8988 C   0  0  0  0  0  0  0  0  0  0  0  0
  -31.1503   19.6041  -27.3787 C   0  0  0  0  0  0  0  0  0  0  0  0
  -31.2136   18.6532  -26.3642 C   0  0  0  0  0  0  0  0  0  0  0  0
  -32.3569   17.9899  -25.6986 C   0  0  0  0  0  0  0  0  0  0  0  0
  -33.4605   18.6909  -25.6896 O   0  0  0  0  0  0  0  0  0  0  0  0
  1  2  1  0
  2  3  1  0
  3  4  2  0
  4  5  1  0
  5  6  2  0
  6  7  1  0
  7  8  2  0
  8  9  1  0
  9 10  1  0
 10 11  1  0
 11 12  1  0
 12 13  1  0
 13 14  1  0
 14 15  1  0
 15 16  1  0
 16 17  1  0
 17 18  1  0
 12 19  1  0
 19 20  1  0
  6 21  1  0
 21 22  1  0
 21 23  1  0
 21 24  1  0
 24 25  1  0
 25 26  1  0
 26 27  2  0
 27 28  1  0
 28 29  1  0
 29 30  3  0
 28 31  2  0
 31 32  1  0
 32 33  2  0
 33 34  1  0
 34 35  1  0
 35 36  2  0
  8  3  1  0
 20  9  1  0
 34 24  2  0
 35  5  1  0
 18 13  1  0
 33 26  1  0
M  END
$$$$
