
     RDKit          3D

 25 27  0  0  0  0  0  0  0  0999 V2000
  -15.5577   15.5912  -29.2838 C   0  0  0  0  0  0  0  0  0  0  0  0
  -16.7114   15.5491  -30.2982 C   0  0  0  0  0  0  0  0  0  0  0  0
  -17.9958   15.1910  -29.5936 C   0  0  0  0  0  0  0  0  0  0  0  0
  -16.7624   17.0535  -31.2446 S   0  0  0  0  0  0  0  0  0  0  0  0
  -16.0861   16.9693  -32.8658 C   0  0  0  0  0  0  0  0  0  0  0  0
  -14.7162   16.6776  -33.0161 C   0  0  0  0  0  0  0  0  0  0  0  0
  -14.1418   16.5690  -34.2456 C   0  0  0  0  0  0  0  0  0  0  0  0
  -14.9099   16.7463  -35.3412 N   0  0  0  0  0  0  0  0  0  0  0  0
  -16.2354   17.0288  -35.2290 C   0  0  0  0  0  0  0  0  0  0  0  0
  -16.8438   17.1447  -33.9969 C   0  0  0  0  0  0  0  0  0  0  0  0
  -18.2628   17.4441  -33.8989 C   0  0  0  0  0  0  0  0  0  0  0  0
  -18.7542   18.7231  -33.7450 C   0  0  0  0  0  0  0  0  0  0  0  0
  -20.1028   18.9760  -33.6736 C   0  0  0  0  0  0  0  0  0  0  0  0
  -21.0207   17.9504  -33.7540 C   0  0  0  0  0  0  0  0  0  0  0  0
  -22.4470   18.1746  -33.6825 C   0  0  0  0  0  0  0  0  0  0  0  0
  -23.5870   18.3686  -33.6343 N   0  0  0  0  0  0  0  0  0  0  0  0
  -20.5067   16.6595  -33.9102 C   0  0  0  0  0  0  0  0  0  0  0  0
  -21.4649   15.6520  -33.9876 C   0  0  0  0  0  0  0  0  0  0  0  0
  -21.0018   14.3613  -34.1421 C   0  0  0  0  0  0  0  0  0  0  0  0
  -19.6540   14.0747  -34.2171 C   0  0  0  0  0  0  0  0  0  0  0  0
  -18.7359   15.0972  -34.1367 C   0  0  0  0  0  0  0  0  0  0  0  0
  -19.1594   16.3964  -33.9827 C   0  0  0  0  0  0  0  0  0  0  0  0
  -16.3977   14.4169  -31.2050 C   0  0  0  0  0  0  0  0  0  0  0  0
  -15.2872   14.3172  -31.7448 O   0  0  0  0  0  0  0  0  0  0  0  0
  -17.3368   13.4222  -31.4859 O   0  0  0  0  0  0  0  0  0  0  0  0
  1  2  1  0
  2  3  1  0
  2  4  1  0
  4  5  1  0
  5  6  2  0
  6  7  1  0
  7  8  2  0
  8  9  1  0
  9 10  2  0
 10 11  1  0
 11 12  2  0
 12 13  1  0
 13 14  2  0
 14 15  1  0
 15 16  3  0
 14 17  1  0
 17 18  2  0
 18 19  1  0
 19 20  2  0
 20 21  1  0
 21 22  2  0
  2 23  1  0
 23 24  2  0
 23 25  1  0
 10  5  1  0
 22 11  1  0
 22 17  1  0
M  END
$$$$
