
     RDKit          3D

 33 35  0  0  0  0  0  0  0  0999 V2000
  -24.5869   23.4122  -32.0820 C   0  0  0  0  0  0  0  0  0  0  0  0
  -25.6922   23.0969  -31.1725 N   0  0  0  0  0  0  0  0  0  0  0  0
  -27.0053   22.8389  -31.6481 C   0  0  0  0  0  0  0  0  0  0  0  0
  -27.1977   22.9077  -32.8879 O   0  0  0  0  0  0  0  0  0  0  0  0
  -28.1054   22.5048  -30.7505 C   0  0  0  0  0  0  0  0  0  0  0  0
  -27.8499   22.2182  -29.4342 C   0  0  0  0  0  0  0  0  0  0  0  0
  -28.8908   21.8999  -28.5757 C   0  0  0  0  0  0  0  0  0  0  0  0
  -28.6935   21.6022  -27.2393 O   0  0  0  0  0  0  0  0  0  0  0  0
  -28.5767   20.3035  -26.7620 C   0  0  0  0  0  0  0  0  0  0  0  0
  -27.3126   19.7807  -26.5923 C   0  0  0  0  0  0  0  0  0  0  0  0
  -27.2080   18.4918  -26.1183 C   0  0  0  0  0  0  0  0  0  0  0  0
  -28.3327   17.7245  -25.8143 C   0  0  0  0  0  0  0  0  0  0  0  0
  -28.2037   16.3961  -25.3262 N   0  0  0  0  0  0  0  0  0  0  0  0
  -26.9444   15.7139  -25.2657 C   0  0  0  0  0  0  0  0  0  0  0  0
  -25.9296   16.4008  -25.3677 O   0  0  0  0  0  0  0  0  0  0  0  0
  -26.8635   14.3128  -25.0963 N   0  0  0  0  0  0  0  0  0  0  0  0
  -25.7975   13.6309  -24.4951 C   0  0  0  0  0  0  0  0  0  0  0  0
  -26.0925   12.3729  -23.9491 C   0  0  0  0  0  0  0  0  0  0  0  0
  -25.1593   11.5839  -23.3281 C   0  0  0  0  0  0  0  0  0  0  0  0
  -23.8515   12.0279  -23.2210 C   0  0  0  0  0  0  0  0  0  0  0  0
  -22.6251   11.0729  -22.4453 Cl  0  0  0  0  0  0  0  0  0  0  0  0
  -23.5263   13.2591  -23.7463 C   0  0  0  0  0  0  0  0  0  0  0  0
  -22.1324   13.7643  -23.6479 C   0  0  0  0  0  0  0  0  0  0  0  0
  -21.8406   13.9508  -22.3033 F   0  0  0  0  0  0  0  0  0  0  0  0
  -21.2397   12.8736  -24.2392 F   0  0  0  0  0  0  0  0  0  0  0  0
  -22.0310   14.9620  -24.3356 F   0  0  0  0  0  0  0  0  0  0  0  0
  -24.5073   14.0352  -24.3728 C   0  0  0  0  0  0  0  0  0  0  0  0
  -29.6005   18.2530  -25.9860 C   0  0  0  0  0  0  0  0  0  0  0  0
  -30.7102   17.5317  -25.6993 F   0  0  0  0  0  0  0  0  0  0  0  0
  -29.6957   19.5427  -26.4605 C   0  0  0  0  0  0  0  0  0  0  0  0
  -30.1887   21.8730  -29.0543 C   0  0  0  0  0  0  0  0  0  0  0  0
  -30.4158   22.1667  -30.3874 C   0  0  0  0  0  0  0  0  0  0  0  0
  -29.3700   22.4760  -31.2061 N   0  0  0  0  0  0  0  0  0  0  0  0
  1  2  1  0
  2  3  1  0
  3  4  2  0
  3  5  1  0
  5  6  2  0
  6  7  1  0
  7  8  1  0
  8  9  1  0
  9 10  2  0
 10 11  1  0
 11 12  2  0
 12 13  1  0
 13 14  1  0
 14 15  2  0
 14 16  1  0
 16 17  1  0
 17 18  2  0
 18 19  1  0
 19 20  2  0
 20 21  1  0
 20 22  1  0
 22 23  1  0
 23 24  1  0
 23 25  1  0
 23 26  1  0
 22 27  2  0
 12 28  1  0
 28 29  1  0
 28 30  2  0
  7 31  2  0
 31 32  1  0
 32 33  2  0
 33  5  1  0
 30  9  1  0
 27 17  1  0
M  END
$$$$
