
     RDKit          3D

 14 16  0  0  0  0  0  0  0  0999 V2000
   -3.5138   39.0154  -13.5026 N   0  0  0  0  0  0  0  0  0  0  0  0
   -2.0804   38.9860  -13.3875 C   0  0  0  0  0  0  0  0  0  0  0  0
   -1.0802   38.9910  -14.0222 N   0  0  0  0  0  0  0  0  0  0  0  0
    0.1584   38.9542  -13.6052 C   0  0  0  0  0  0  0  0  0  0  0  0
    0.3234   38.9027  -12.2465 C   0  0  0  0  0  0  0  0  0  0  0  0
    1.5672   38.8585  -11.6230 C   0  0  0  0  0  0  0  0  0  0  0  0
    2.7197   38.8651  -12.3789 C   0  0  0  0  0  0  0  0  0  0  0  0
    2.5591   38.9175  -13.7638 C   0  0  0  0  0  0  0  0  0  0  0  0
    3.7632   38.9221  -14.4878 C   0  0  0  0  0  0  0  0  0  0  0  0
    3.6747   38.9726  -15.8574 C   0  0  0  0  0  0  0  0  0  0  0  0
    2.4349   39.0166  -16.4754 C   0  0  0  0  0  0  0  0  0  0  0  0
    1.2694   39.0113  -15.7526 C   0  0  0  0  0  0  0  0  0  0  0  0
    1.3377   38.9610  -14.3769 C   0  0  0  0  0  0  0  0  0  0  0  0
   -1.3467   38.9107  -11.6452 S   0  0  0  0  0  0  0  0  0  0  0  0
  1  2  1  0
  2  3  2  0
  3  4  1  0
  4  5  2  0
  5  6  1  0
  6  7  2  0
  7  8  1  0
  8  9  2  0
  9 10  1  0
 10 11  2  0
 11 12  1  0
 12 13  2  0
  5 14  1  0
 14  2  1  0
 13  4  1  0
 13  8  1  0
M  END
$$$$
