
     RDKit          3D

 37 40  0  0  0  0  0  0  0  0999 V2000
  -11.6739   25.7802  -47.0605 C   0  0  0  0  0  0  0  0  0  0  0  0
  -11.6787   24.7242  -46.1091 O   0  0  0  0  0  0  0  0  0  0  0  0
  -12.7911   23.9450  -45.8654 C   0  0  0  0  0  0  0  0  0  0  0  0
  -13.8437   24.1253  -46.5078 O   0  0  0  0  0  0  0  0  0  0  0  0
  -12.7885   22.8759  -44.8470 C   0  0  0  0  0  0  0  0  0  0  0  0
  -13.8295   22.0670  -44.7262 C   0  0  0  0  0  0  0  0  0  0  0  0
  -13.9064   20.9734  -43.7889 C   0  0  0  0  0  0  0  0  0  0  0  0
  -15.0835   20.5532  -43.2220 C   0  0  0  0  0  0  0  0  0  0  0  0
  -15.0535   19.4958  -42.3394 C   0  0  0  0  0  0  0  0  0  0  0  0
  -13.8551   18.8501  -42.0138 C   0  0  0  0  0  0  0  0  0  0  0  0
  -12.6726   19.2635  -42.5764 C   0  0  0  0  0  0  0  0  0  0  0  0
  -11.4293   18.6129  -42.2643 N   0  0  0  0  0  0  0  0  0  0  0  0
  -10.8103   18.8406  -40.9806 C   0  0  0  0  0  0  0  0  0  0  0  0
  -11.3615   17.9751  -39.9254 C   0  0  0  0  0  0  0  0  0  0  0  0
  -12.3347   17.0380  -40.0825 C   0  0  0  0  0  0  0  0  0  0  0  0
  -12.8019   16.2691  -39.0025 C   0  0  0  0  0  0  0  0  0  0  0  0
  -12.2795   16.4472  -37.7456 C   0  0  0  0  0  0  0  0  0  0  0  0
  -12.7314   15.6840  -36.5678 C   0  0  0  0  0  0  0  0  0  0  0  0
  -11.8913   15.1261  -35.6498 C   0  0  0  0  0  0  0  0  0  0  0  0
  -12.3393   14.4178  -34.5407 C   0  0  0  0  0  0  0  0  0  0  0  0
  -13.6917   14.2501  -34.3246 C   0  0  0  0  0  0  0  0  0  0  0  0
  -14.2458   13.5576  -33.2410 N   0  0  0  0  0  0  0  0  0  0  0  0
  -15.6672   13.4830  -33.0627 C   0  0  0  0  0  0  0  0  0  0  0  0
  -13.3887   12.9006  -32.2815 C   0  0  0  0  0  0  0  0  0  0  0  0
  -14.5466   14.8190  -35.2616 C   0  0  0  0  0  0  0  0  0  0  0  0
  -14.0891   15.5177  -36.3552 C   0  0  0  0  0  0  0  0  0  0  0  0
  -11.2935   17.3872  -37.5591 C   0  0  0  0  0  0  0  0  0  0  0  0
  -10.8495   18.1306  -38.6272 C   0  0  0  0  0  0  0  0  0  0  0  0
  -10.8993   17.7163  -43.1994 C   0  0  0  0  0  0  0  0  0  0  0  0
  -10.3874   16.6466  -42.6666 O   0  0  0  0  0  0  0  0  0  0  0  0
  -10.8283   17.7700  -44.6452 C   0  0  0  0  0  0  0  0  0  0  0  0
  -10.1612   19.0139  -45.2079 C   0  0  0  0  0  0  0  0  0  0  0  0
  -10.7022   19.1397  -46.6368 C   0  0  0  0  0  0  0  0  0  0  0  0
  -10.3688   17.8989  -47.4379 C   0  0  0  0  0  0  0  0  0  0  0  0
  -10.9373   16.6532  -46.7997 C   0  0  0  0  0  0  0  0  0  0  0  0
  -10.3298   16.5828  -45.3825 C   0  0  0  0  0  0  0  0  0  0  0  0
  -12.7151   20.3160  -43.4530 C   0  0  0  0  0  0  0  0  0  0  0  0
  1  2  1  0
  2  3  1  0
  3  4  2  0
  3  5  1  0
  5  6  2  0
  6  7  1  0
  7  8  2  0
  8  9  1  0
  9 10  2  0
 10 11  1  0
 11 12  1  0
 12 13  1  0
 13 14  1  0
 14 15  2  0
 15 16  1  0
 16 17  2  0
 17 18  1  0
 18 19  2  0
 19 20  1  0
 20 21  2  0
 21 22  1  0
 22 23  1  0
 22 24  1  0
 21 25  1  0
 25 26  2  0
 17 27  1  0
 27 28  2  0
 12 29  1  0
 29 30  2  0
 29 31  1  0
 31 32  1  0
 32 33  1  0
 33 34  1  0
 34 35  1  0
 35 36  1  0
 11 37  2  0
 37  7  1  0
 28 14  1  0
 36 31  1  0
 26 18  1  0
M  END
$$$$
