
     RDKit          3D

 23 26  0  0  0  0  0  0  0  0999 V2000
  -13.6469   18.0893  -34.9908 C   0  0  0  0  0  0  0  0  0  0  0  0
  -14.4054   17.5454  -34.2080 C   0  0  0  0  0  0  0  0  0  0  0  0
  -15.3401   16.8941  -33.2791 C   0  0  2  0  0  0  0  0  0  0  0  0
  -15.0243   17.1930  -31.9552 O   0  0  0  0  0  0  0  0  0  0  0  0
  -15.2266   15.3749  -33.4347 C   0  0  0  0  0  0  0  0  0  0  0  0
  -16.5247   14.9174  -34.0700 C   0  0  0  0  0  0  0  0  0  0  0  0
  -16.9802   16.1550  -34.7592 C   0  0  1  0  0  0  0  0  0  0  0  0
  -18.3834   16.1517  -35.2426 C   0  0  2  0  0  0  0  0  0  0  0  0
  -18.4018   15.3431  -36.5484 C   0  0  0  0  0  0  0  0  0  0  0  0
  -19.7664   15.3076  -37.1507 C   0  0  0  0  0  0  0  0  0  0  0  0
  -20.3650   16.6800  -37.2011 C   0  0  0  0  0  0  0  0  0  0  0  0
  -20.9702   17.0607  -38.2941 C   0  0  0  0  0  0  0  0  0  0  0  0
  -21.5608   18.3856  -38.3729 C   0  0  0  0  0  0  0  0  0  0  0  0
  -21.6806   19.0092  -39.4435 O   0  0  0  0  0  0  0  0  0  0  0  0
  -22.0245   18.9632  -37.0597 C   0  0  0  0  0  0  0  0  0  0  0  0
  -20.8127   18.9005  -36.1593 C   0  0  0  0  0  0  0  0  0  0  0  0
  -20.2426   17.5334  -36.0149 C   0  0  1  0  0  0  0  0  0  0  0  0
  -21.0327   16.8468  -34.8967 C   0  0  0  0  0  0  0  0  0  0  0  0
  -18.7743   17.5543  -35.6338 C   0  0  1  0  0  0  0  0  0  0  0  0
  -18.5121   18.5681  -34.5646 C   0  0  0  0  0  0  0  0  0  0  0  0
  -17.0151   18.5217  -34.2264 C   0  0  0  0  0  0  0  0  0  0  0  0
  -16.7569   17.1826  -33.6399 C   0  0  2  0  0  0  0  0  0  0  0  0
  -17.6251   16.8863  -32.4442 C   0  0  0  0  0  0  0  0  0  0  0  0
  1  2  3  0
  2  3  1  0
  3  4  1  1
  3  5  1  0
  5  6  1  0
  7  6  1  1
  7  8  1  0
  8  9  1  6
  9 10  1  0
 10 11  1  0
 11 12  2  0
 12 13  1  0
 13 14  2  0
 13 15  1  0
 15 16  1  0
 16 17  1  0
 17 18  1  1
 17 19  1  0
 19 20  1  1
 20 21  1  0
 21 22  1  0
 22 23  1  1
 22  3  1  0
 22  7  1  0
 19  8  1  0
 17 11  1  0
M  END
$$$$
