
     RDKit          3D

 31 34  0  0  0  0  0  0  0  0999 V2000
  -18.0152   39.2962  -19.6206 O   0  0  0  0  0  0  0  0  0  0  0  0
  -17.7348   40.2244  -20.4026 C   0  0  0  0  0  0  0  0  0  0  0  0
  -16.9503   41.3164  -20.0246 C   0  0  0  0  0  0  0  0  0  0  0  0
  -16.6728   42.3129  -20.9312 C   0  0  0  0  0  0  0  0  0  0  0  0
  -15.8536   43.4603  -20.5488 C   0  0  0  0  0  0  0  0  0  0  0  0
  -15.1196   43.4013  -19.3658 C   0  0  0  0  0  0  0  0  0  0  0  0
  -14.3269   44.4491  -18.9473 C   0  0  0  0  0  0  0  0  0  0  0  0
  -14.2287   45.6061  -19.6896 C   0  0  0  0  0  0  0  0  0  0  0  0
  -13.4295   46.6743  -19.2769 O   0  0  0  0  0  0  0  0  0  0  0  0
  -14.9479   45.6802  -20.8613 C   0  0  0  0  0  0  0  0  0  0  0  0
  -15.7523   44.6139  -21.2836 C   0  0  0  0  0  0  0  0  0  0  0  0
  -17.1537   42.2341  -22.1698 O   0  0  0  0  0  0  0  0  0  0  0  0
  -17.8855   41.2414  -22.5664 C   0  0  0  0  0  0  0  0  0  0  0  0
  -18.3523   41.2286  -23.8773 C   0  0  0  0  0  0  0  0  0  0  0  0
  -19.1374   40.1913  -24.3501 C   0  0  0  0  0  0  0  0  0  0  0  0
  -19.5603   40.2413  -25.6427 O   0  0  0  0  0  0  0  0  0  0  0  0
  -20.7942   39.9534  -26.1847 C   0  0  2  0  0  0  0  0  0  0  0  0
  -20.8062   38.7152  -26.8096 O   0  0  0  0  0  0  0  0  0  0  0  0
  -22.0664   38.2808  -27.1484 C   0  0  2  0  0  0  0  0  0  0  0  0
  -21.9159   37.0543  -28.0248 C   0  0  0  0  0  0  0  0  0  0  0  0
  -21.1657   37.2893  -29.1569 O   0  0  0  0  0  0  0  0  0  0  0  0
  -22.9166   39.2752  -27.8578 C   0  0  1  0  0  0  0  0  0  0  0  0
  -24.2555   38.9661  -27.5917 O   0  0  0  0  0  0  0  0  0  0  0  0
  -22.6996   40.7012  -27.4486 C   0  0  2  0  0  0  0  0  0  0  0  0
  -23.2404   41.5540  -28.4005 O   0  0  0  0  0  0  0  0  0  0  0  0
  -21.2114   40.9513  -27.2727 C   0  0  1  0  0  0  0  0  0  0  0  0
  -20.9518   42.2540  -26.8795 O   0  0  0  0  0  0  0  0  0  0  0  0
  -19.4393   39.1724  -23.4749 C   0  0  0  0  0  0  0  0  0  0  0  0
  -18.9768   39.1846  -22.1755 C   0  0  0  0  0  0  0  0  0  0  0  0
  -19.2776   38.1568  -21.2821 O   0  0  0  0  0  0  0  0  0  0  0  0
  -18.1947   40.2156  -21.7005 C   0  0  0  0  0  0  0  0  0  0  0  0
  1  2  2  0
  2  3  1  0
  3  4  2  0
  4  5  1  0
  5  6  2  0
  6  7  1  0
  7  8  2  0
  8  9  1  0
  8 10  1  0
 10 11  2  0
  4 12  1  0
 12 13  1  0
 13 14  2  0
 14 15  1  0
 15 16  1  0
 17 16  1  6
 17 18  1  0
 18 19  1  0
 19 20  1  6
 20 21  1  0
 19 22  1  0
 22 23  1  1
 22 24  1  0
 24 25  1  6
 24 26  1  0
 26 27  1  1
 15 28  2  0
 28 29  1  0
 29 30  1  0
 29 31  2  0
 31  2  1  0
 11  5  1  0
 31 13  1  0
 26 17  1  0
M  END
$$$$
