
     RDKit          3D

 31 35  0  0  0  0  0  0  0  0999 V2000
  -20.7723   20.0400  -38.4736 C   0  0  0  0  0  0  0  0  0  0  0  0
  -21.4196   21.0157  -37.5036 C   0  0  0  0  0  0  0  0  0  0  0  0
  -21.4467   20.3015  -36.1662 C   0  0  0  0  0  0  0  0  0  0  0  0
  -20.5288   22.0678  -37.4050 O   0  0  0  0  0  0  0  0  0  0  0  0
  -21.1329   23.1776  -37.9881 C   0  0  2  0  0  0  0  0  0  0  0  0
  -21.2984   24.1643  -36.8137 C   0  0  0  0  0  0  0  0  0  0  0  0
  -22.6830   23.8235  -36.3821 C   0  0  1  0  0  0  0  0  0  0  0  0
  -23.3139   24.7750  -35.4112 C   0  0  2  0  0  0  0  0  0  0  0  0
  -22.6825   24.5754  -34.0801 C   0  0  0  0  0  0  0  0  0  0  0  0
  -23.4793   24.9803  -32.8930 C   0  0  0  0  0  0  0  0  0  0  0  0
  -24.9090   25.1616  -33.1033 C   0  0  0  0  0  0  0  0  0  0  0  0
  -25.7735   24.9236  -32.1356 C   0  0  0  0  0  0  0  0  0  0  0  0
  -27.2250   25.1060  -32.3472 C   0  0  0  0  0  0  0  0  0  0  0  0
  -28.0307   25.2103  -31.3958 O   0  0  0  0  0  0  0  0  0  0  0  0
  -27.7291   25.1657  -33.7240 C   0  0  0  0  0  0  0  0  0  0  0  0
  -26.7759   25.9349  -34.5910 C   0  0  0  0  0  0  0  0  0  0  0  0
  -25.3473   25.6273  -34.4640 C   0  0  1  0  0  0  0  0  0  0  0  0
  -24.5820   26.9477  -34.6704 C   0  0  0  0  0  0  0  0  0  0  0  0
  -24.8035   24.5591  -35.3861 C   0  0  2  0  0  0  0  0  0  0  0  0
  -25.0121   23.3247  -34.7538 F   0  0  0  0  0  0  0  0  0  0  0  0
  -25.4607   24.4934  -36.7060 C   0  0  1  0  0  0  0  0  0  0  0  0
  -25.5981   25.6996  -37.3741 O   0  0  0  0  0  0  0  0  0  0  0  0
  -24.7906   23.4378  -37.5592 C   0  0  0  0  0  0  0  0  0  0  0  0
  -23.3672   23.7944  -37.7200 C   0  0  1  0  0  0  0  0  0  0  0  0
  -23.2059   25.1003  -38.4684 C   0  0  0  0  0  0  0  0  0  0  0  0
  -22.5099   22.7668  -38.4142 C   0  0  1  0  0  0  0  0  0  0  0  0
  -22.7465   22.7535  -39.8741 C   0  0  0  0  0  0  0  0  0  0  0  0
  -22.6967   23.7727  -40.5732 O   0  0  0  0  0  0  0  0  0  0  0  0
  -23.0681   21.5050  -40.6056 C   0  0  0  0  0  0  0  0  0  0  0  0
  -21.8158   21.1163  -41.8263 Cl  0  0  0  0  0  0  0  0  0  0  0  0
  -22.6387   21.5002  -37.9071 O   0  0  0  0  0  0  0  0  0  0  0  0
  1  2  1  0
  2  3  1  0
  2  4  1  0
  4  5  1  0
  5  6  1  1
  7  6  1  6
  7  8  1  0
  8  9  1  1
  9 10  1  0
 10 11  1  0
 11 12  2  0
 12 13  1  0
 13 14  2  0
 13 15  1  0
 15 16  1  0
 16 17  1  0
 17 18  1  6
 17 19  1  0
 19 20  1  1
 19 21  1  0
 21 22  1  6
 21 23  1  0
 23 24  1  0
 24 25  1  6
 24 26  1  0
 26 27  1  6
 27 28  2  0
 27 29  1  0
 29 30  1  0
 26 31  1  0
 31  2  1  0
 26  5  1  0
 24  7  1  0
 19  8  1  0
 17 11  1  0
M  END
$$$$
