
     RDKit          3D

 38 40  0  0  0  0  0  0  0  0999 V2000
  -19.3749   49.1741  -21.4754 C   0  0  0  0  0  0  0  0  0  0  0  0
  -18.9263   48.0201  -22.3359 C   0  0  0  0  0  0  0  0  0  0  0  0
  -19.9696   46.9483  -22.4971 C   0  0  0  0  0  0  0  0  0  0  0  0
  -19.6147   45.8305  -23.3784 C   0  0  0  0  0  0  0  0  0  0  0  0
  -18.3584   45.0525  -23.0304 C   0  0  2  0  0  0  0  0  0  0  0  0
  -17.2497   46.0789  -23.0271 C   0  0  0  0  0  0  0  0  0  0  0  0
  -17.1960   46.8233  -24.3694 C   0  0  0  0  0  0  0  0  0  0  0  0
  -18.1956   44.1298  -24.2349 C   0  0  0  0  0  0  0  0  0  0  0  0
  -18.5980   42.4684  -24.0053 S   0  0  0  0  0  6  0  0  0  0  0  0
  -18.0166   41.6284  -25.1363 O   0  0  0  0  0  0  0  0  0  0  0  0
  -20.1014   42.2739  -24.1252 O   0  0  0  0  0  0  0  0  0  0  0  0
  -18.1059   41.7547  -22.5316 C   0  0  0  0  0  0  0  0  0  0  0  0
  -18.0548   40.3640  -22.6387 C   0  0  0  0  0  0  0  0  0  0  0  0
  -17.6820   39.6044  -21.5537 C   0  0  0  0  0  0  0  0  0  0  0  0
  -17.6243   38.0988  -21.6341 C   0  0  0  0  0  0  0  0  0  0  0  0
  -18.7385   37.6021  -22.3919 N   0  0  0  0  0  0  0  0  0  0  0  0
  -18.4266   36.2585  -22.9186 C   0  0  0  0  0  0  0  0  0  0  0  0
  -18.0731   36.3540  -24.3567 C   0  0  0  0  0  0  0  0  0  0  0  0
  -19.0215   37.0573  -25.2257 C   0  0  0  0  0  0  0  0  0  0  0  0
  -20.2678   36.8925  -25.0155 O   0  0  0  0  0  0  0  0  0  0  0  0
  -18.6767   37.8994  -26.2688 O   0  0  0  0  0  0  0  0  0  0  0  0
  -19.5595   35.3470  -22.5748 C   0  0  0  0  0  0  0  0  0  0  0  0
  -20.0298   35.4291  -21.1906 C   0  0  0  0  0  0  0  0  0  0  0  0
  -20.5033   36.4770  -20.6743 O   0  0  0  0  0  0  0  0  0  0  0  0
  -19.9791   34.3218  -20.3396 O   0  0  0  0  0  0  0  0  0  0  0  0
  -17.3522   40.1753  -20.3471 C   0  0  0  0  0  0  0  0  0  0  0  0
  -16.9762   39.3946  -19.2558 O   0  0  0  0  0  0  0  0  0  0  0  0
  -16.8094   39.9244  -17.9757 C   0  0  0  0  0  0  0  0  0  0  0  0
  -17.3987   41.5264  -20.2328 C   0  0  0  0  0  0  0  0  0  0  0  0
  -17.7720   42.2909  -21.3178 C   0  0  0  0  0  0  0  0  0  0  0  0
  -17.7738   43.7571  -20.9944 C   0  0  1  0  0  0  0  0  0  0  0  0
  -16.4649   44.2817  -20.6518 C   0  0  0  0  0  0  0  0  0  0  0  0
  -16.3490   45.1611  -19.6001 C   0  0  0  0  0  0  0  0  0  0  0  0
  -15.1154   45.6859  -19.2875 C   0  0  0  0  0  0  0  0  0  0  0  0
  -13.9810   45.3611  -19.9944 C   0  0  0  0  0  0  0  0  0  0  0  0
  -14.0665   44.4838  -21.0512 C   0  0  0  0  0  0  0  0  0  0  0  0
  -15.3134   43.9808  -21.3336 C   0  0  0  0  0  0  0  0  0  0  0  0
  -18.6456   44.4146  -21.8327 N   0  0  0  0  0  0  0  0  0  0  0  0
  1  2  1  0
  2  3  1  0
  3  4  1  0
  5  4  1  6
  5  6  1  0
  6  7  1  0
  5  8  1  0
  8  9  1  0
  9 10  2  0
  9 11  2  0
  9 12  1  0
 12 13  2  0
 13 14  1  0
 14 15  1  0
 15 16  1  0
 16 17  1  0
 17 18  1  0
 18 19  1  0
 19 20  2  0
 19 21  1  0
 17 22  1  0
 22 23  1  0
 23 24  2  0
 23 25  1  0
 14 26  2  0
 26 27  1  0
 27 28  1  0
 26 29  1  0
 29 30  2  0
 30 31  1  0
 31 32  1  6
 32 33  2  0
 33 34  1  0
 34 35  2  0
 35 36  1  0
 36 37  2  0
 31 38  1  0
 38  5  1  0
 30 12  1  0
 37 32  1  0
M  END
$$$$
