
     RDKit          3D

 34 38  0  0  0  0  0  0  0  0999 V2000
  -21.1342   38.6089  -26.4338 C   0  0  0  0  0  0  0  0  0  0  0  0
  -20.2184   38.9522  -25.3267 C   0  0  0  0  0  0  0  0  0  0  0  0
  -19.7499   37.7651  -24.0497 S   0  0  0  0  0  0  0  0  0  0  0  0
  -18.7118   38.8881  -23.1784 C   0  0  0  0  0  0  0  0  0  0  0  0
  -18.7644   40.0776  -23.8879 C   0  0  0  0  0  0  0  0  0  0  0  0
  -19.5483   40.0936  -24.9833 C   0  0  0  0  0  0  0  0  0  0  0  0
  -19.8583   41.3624  -25.7944 C   0  0  0  0  0  0  0  0  0  0  0  0
  -17.9381   41.2353  -23.4894 C   0  0  0  0  0  0  0  0  0  0  0  0
  -17.3162   42.0715  -24.4668 C   0  0  0  0  0  0  0  0  0  0  0  0
  -17.0457   41.5608  -25.7190 C   0  0  0  0  0  0  0  0  0  0  0  0
  -16.6113   42.3078  -26.7827 C   0  0  0  0  0  0  0  0  0  0  0  0
  -16.4277   43.6555  -26.6085 C   0  0  0  0  0  0  0  0  0  0  0  0
  -15.8735   44.6557  -27.9314 Cl  0  0  0  0  0  0  0  0  0  0  0  0
  -16.6905   44.2130  -25.3591 C   0  0  0  0  0  0  0  0  0  0  0  0
  -17.1344   43.4084  -24.3011 C   0  0  0  0  0  0  0  0  0  0  0  0
  -17.7142   41.5580  -22.2256 N   0  0  0  0  0  0  0  0  0  0  0  0
  -18.1544   40.9342  -20.9924 C   0  0  1  0  0  0  0  0  0  0  0  0
  -19.6589   41.0372  -20.9591 C   0  0  0  0  0  0  0  0  0  0  0  0
  -20.1122   42.3293  -20.3868 C   0  0  0  0  0  0  0  0  0  0  0  0
  -20.9938   43.0195  -20.9823 O   0  0  0  0  0  0  0  0  0  0  0  0
  -19.5312   42.7551  -19.1689 N   0  0  0  0  0  0  0  0  0  0  0  0
  -19.7569   44.0938  -18.7540 C   0  0  0  0  0  0  0  0  0  0  0  0
  -19.3394   44.4757  -17.5006 C   0  0  0  0  0  0  0  0  0  0  0  0
  -19.5759   45.8005  -17.1199 C   0  0  0  0  0  0  0  0  0  0  0  0
  -20.2086   46.6710  -17.9936 C   0  0  0  0  0  0  0  0  0  0  0  0
  -20.4492   47.9914  -17.6256 O   0  0  0  0  0  0  0  0  0  0  0  0
  -20.6265   46.2811  -19.2537 C   0  0  0  0  0  0  0  0  0  0  0  0
  -20.3855   44.9550  -19.6248 C   0  0  0  0  0  0  0  0  0  0  0  0
  -17.8143   39.4854  -20.9504 C   0  0  0  0  0  0  0  0  0  0  0  0
  -17.2266   38.7738  -19.9788 N   0  0  0  0  0  0  0  0  0  0  0  0
  -17.1415   37.4806  -20.3852 N   0  0  0  0  0  0  0  0  0  0  0  0
  -17.6741   37.3621  -21.6168 C   0  0  0  0  0  0  0  0  0  0  0  0
  -17.8143   36.1487  -22.4540 C   0  0  0  0  0  0  0  0  0  0  0  0
  -18.0760   38.5956  -21.9400 N   0  0  0  0  0  0  0  0  0  0  0  0
  1  2  1  0
  2  3  1  0
  3  4  1  0
  4  5  2  0
  5  6  1  0
  6  7  1  0
  5  8  1  0
  8  9  1  0
  9 10  2  0
 10 11  1  0
 11 12  2  0
 12 13  1  0
 12 14  1  0
 14 15  2  0
  8 16  2  0
 16 17  1  0
 17 18  1  6
 18 19  1  0
 19 20  2  0
 19 21  1  0
 21 22  1  0
 22 23  2  0
 23 24  1  0
 24 25  2  0
 25 26  1  0
 25 27  1  0
 27 28  2  0
 17 29  1  0
 29 30  2  0
 30 31  1  0
 31 32  2  0
 32 33  1  0
 32 34  1  0
  6  2  2  0
 15  9  1  0
 28 22  1  0
 34 29  1  0
 34  4  1  0
M  END
$$$$
