
     RDKit          3D

 17 18  0  0  0  0  0  0  0  0999 V2000
  -18.0530   41.8638  -20.2390 N   0  0  0  0  0  0  0  0  0  0  0  0
  -18.1510   40.6599  -20.9835 C   0  0  0  0  0  0  0  0  0  0  0  0
  -18.6601   40.6123  -22.2642 C   0  0  0  0  0  0  0  0  0  0  0  0
  -18.7203   39.3904  -22.9224 C   0  0  0  0  0  0  0  0  0  0  0  0
  -18.3008   38.2502  -22.3588 N   0  0  0  0  0  0  0  0  0  0  0  0
  -18.3862   37.0258  -23.0806 C   0  0  2  0  0  0  0  0  0  0  0  0
  -19.3452   36.1547  -22.6282 O   0  0  0  0  0  0  0  0  0  0  0  0
  -18.8891   34.8668  -22.7694 C   0  0  2  0  0  0  0  0  0  0  0  0
  -18.5631   34.2461  -21.4034 C   0  0  0  0  0  0  0  0  0  0  0  0
  -18.8362   32.8893  -21.4011 O   0  0  0  0  0  0  0  0  0  0  0  0
  -17.6189   34.9391  -23.5921 C   0  0  1  0  0  0  0  0  0  0  0  0
  -17.9820   35.1602  -24.9078 O   0  0  0  0  0  0  0  0  0  0  0  0
  -17.0652   36.2423  -23.0485 C   0  0  1  0  0  0  0  0  0  0  0  0
  -16.1313   36.8115  -23.8984 O   0  0  0  0  0  0  0  0  0  0  0  0
  -17.8072   38.3172  -21.1086 C   0  0  0  0  0  0  0  0  0  0  0  0
  -17.4062   37.2392  -20.5648 O   0  0  0  0  0  0  0  0  0  0  0  0
  -17.7356   39.5008  -20.4380 N   0  0  0  0  0  0  0  0  0  0  0  0
  1  2  1  0
  2  3  1  0
  3  4  2  0
  4  5  1  0
  6  5  1  1
  6  7  1  0
  7  8  1  0
  8  9  1  1
  9 10  1  0
  8 11  1  0
 11 12  1  6
 11 13  1  0
 13 14  1  6
  5 15  1  0
 15 16  2  0
 15 17  1  0
 17  2  2  0
 13  6  1  0
M  END
$$$$
