
     RDKit          3D

 35 40  0  0  0  0  0  0  0  0999 V2000
  -27.7702   15.7881  -21.9254 C   0  0  0  0  0  0  0  0  0  0  0  0
  -28.0746   16.3317  -23.2250 C   0  0  0  0  0  0  0  0  0  0  0  0
  -28.3778   17.6401  -23.5013 N   0  0  0  0  0  0  0  0  0  0  0  0
  -28.7141   18.0823  -24.7141 C   0  0  0  0  0  0  0  0  0  0  0  0
  -29.0164   19.4585  -24.9251 N   0  0  0  0  0  0  0  0  0  0  0  0
  -29.1167   20.0801  -26.1814 C   0  0  0  0  0  0  0  0  0  0  0  0
  -28.6517   19.6544  -27.4075 C   0  0  0  0  0  0  0  0  0  0  0  0
  -28.9698   20.5741  -28.3639 N   0  0  0  0  0  0  0  0  0  0  0  0
  -29.6193   21.5656  -27.7849 N   0  0  0  0  0  0  0  0  0  0  0  0
  -30.1575   22.7729  -28.4050 C   0  0  0  0  0  0  0  0  0  0  0  0
  -31.1579   22.3844  -29.4786 C   0  0  0  0  0  0  0  0  0  0  0  0
  -30.4614   21.8253  -30.7009 C   0  0  0  0  0  0  0  0  0  0  0  0
  -29.3064   22.5685  -31.1055 N   0  0  0  0  0  0  0  0  0  0  0  0
  -28.3516   22.7032  -30.0207 C   0  0  0  0  0  0  0  0  0  0  0  0
  -29.0215   23.5707  -28.9746 C   0  0  0  0  0  0  0  0  0  0  0  0
  -29.7255   21.3018  -26.4739 C   0  0  0  0  0  0  0  0  0  0  0  0
  -28.7773   17.2481  -25.7621 N   0  0  0  0  0  0  0  0  0  0  0  0
  -28.4950   15.9579  -25.5724 C   0  0  0  0  0  0  0  0  0  0  0  0
  -28.1374   15.4844  -24.3021 C   0  0  0  0  0  0  0  0  0  0  0  0
  -27.7455   14.1749  -23.9036 N   0  0  0  0  0  0  0  0  0  0  0  0
  -26.7543   14.1385  -22.9027 C   0  0  0  0  0  0  0  0  0  0  0  0
  -28.2795   12.9696  -24.5157 C   0  0  0  0  0  0  0  0  0  0  0  0
  -28.2477   11.9819  -23.7580 O   0  0  0  0  0  0  0  0  0  0  0  0
  -28.8214   12.8269  -25.8769 C   0  0  0  0  0  0  0  0  0  0  0  0
  -29.1978   11.5295  -26.1309 C   0  0  0  0  0  0  0  0  0  0  0  0
  -29.7266   11.1848  -27.3820 C   0  0  0  0  0  0  0  0  0  0  0  0
  -30.1154    9.8983  -27.6766 C   0  0  0  0  0  0  0  0  0  0  0  0
  -30.6391    9.5313  -28.9001 C   0  0  0  0  0  0  0  0  0  0  0  0
  -30.7707   10.5145  -29.8584 C   0  0  0  0  0  0  0  0  0  0  0  0
  -30.4014   11.8053  -29.6199 C   0  0  0  0  0  0  0  0  0  0  0  0
  -29.8811   12.1316  -28.3809 C   0  0  0  0  0  0  0  0  0  0  0  0
  -29.4916   13.4324  -28.0922 C   0  0  0  0  0  0  0  0  0  0  0  0
  -28.9708   13.7778  -26.8625 C   0  0  0  0  0  0  0  0  0  0  0  0
  -28.6415   15.1614  -26.7520 N   0  0  0  0  0  0  0  0  0  0  0  0
  -28.4478   15.8391  -27.9906 C   0  0  0  0  0  0  0  0  0  0  0  0
  1  2  1  0
  2  3  2  0
  3  4  1  0
  4  5  1  0
  5  6  1  0
  6  7  1  0
  7  8  2  0
  8  9  1  0
  9 10  1  0
 10 11  1  0
 11 12  1  0
 12 13  1  0
 13 14  1  0
 14 15  1  0
  9 16  1  0
  4 17  2  0
 17 18  1  0
 18 19  2  0
 19 20  1  0
 20 21  1  0
 20 22  1  0
 22 23  2  0
 22 24  1  0
 24 25  2  0
 25 26  1  0
 26 27  2  0
 27 28  1  0
 28 29  2  0
 29 30  1  0
 30 31  2  0
 31 32  1  0
 32 33  2  0
 33 34  1  0
 34 35  1  0
 19  2  1  0
 33 24  1  0
 16  6  2  0
 34 18  1  0
 15 10  1  0
 31 26  1  0
M  END
$$$$
