
     RDKit          3D

 47 52  0  0  0  0  0  0  0  0999 V2000
  -33.5929   14.5577  -22.1727 C   0  0  0  0  0  0  0  0  0  0  0  0
  -33.1652   13.3475  -22.8876 N   0  0  0  0  0  0  0  0  0  0  0  0
  -34.0568   12.2410  -22.3642 C   0  0  0  0  0  0  0  0  0  0  0  0
  -33.5922   13.4664  -24.2988 C   0  0  0  0  0  0  0  0  0  0  0  0
  -32.7373   14.5579  -24.9120 C   0  0  0  0  0  0  0  0  0  0  0  0
  -32.0272   15.4714  -25.3999 C   0  0  0  0  0  0  0  0  0  0  0  0
  -31.2548   16.4636  -25.9350 C   0  0  0  0  0  0  0  0  0  0  0  0
  -30.9542   16.6502  -27.2443 C   0  0  0  0  0  0  0  0  0  0  0  0
  -30.2487   17.7008  -27.7746 C   0  0  0  0  0  0  0  0  0  0  0  0
  -29.7810   18.7003  -26.8974 C   0  0  0  0  0  0  0  0  0  0  0  0
  -29.0910   19.7410  -27.4127 O   0  0  0  0  0  0  0  0  0  0  0  0
  -28.2828   19.8021  -28.5470 C   0  0  0  0  0  0  0  0  0  0  0  0
  -26.9364   19.2156  -28.3025 C   0  0  0  0  0  0  0  0  0  0  0  0
  -25.7461   20.1663  -28.5049 C   0  0  0  0  0  0  0  0  0  0  0  0
  -25.1082   19.6955  -29.7828 C   0  0  0  0  0  0  0  0  0  0  0  0
  -25.3232   18.1837  -30.6082 S   0  0  0  0  0  0  0  0  0  0  0  0
  -24.2840   18.7276  -32.0935 C   0  0  0  0  0  0  0  0  0  0  0  0
  -24.1013   17.8104  -33.2114 N   0  0  0  0  0  0  0  0  0  0  0  0
  -25.3407   17.2375  -33.7687 C   0  0  0  0  0  0  0  0  0  0  0  0
  -25.3631   15.7571  -33.3556 C   0  0  0  0  0  0  0  0  0  0  0  0
  -24.0078   15.2121  -33.6863 C   0  0  0  0  0  0  0  0  0  0  0  0
  -23.9859   13.7955  -33.7479 C   0  0  0  0  0  0  0  0  0  0  0  0
  -22.8383   13.1583  -34.0957 C   0  0  0  0  0  0  0  0  0  0  0  0
  -21.7122   13.9052  -34.3750 C   0  0  0  0  0  0  0  0  0  0  0  0
  -21.7609   15.3149  -34.2959 C   0  0  0  0  0  0  0  0  0  0  0  0
  -20.5032   15.9199  -34.7854 C   0  0  0  0  0  0  0  0  0  0  0  0
  -20.4181   16.4073  -35.8975 O   0  0  0  0  0  0  0  0  0  0  0  0
  -19.3966   15.9216  -33.8939 N   0  0  0  0  0  0  0  0  0  0  0  0
  -18.8603   17.0792  -33.2590 C   0  0  0  0  0  0  0  0  0  0  0  0
  -17.8593   17.2331  -32.4916 N   0  0  0  0  0  0  0  0  0  0  0  0
  -17.5390   18.3479  -31.9354 C   0  0  0  0  0  0  0  0  0  0  0  0
  -16.4882   18.6085  -31.0347 C   0  0  0  0  0  0  0  0  0  0  0  0
  -16.2914   19.7936  -30.4868 C   0  0  0  0  0  0  0  0  0  0  0  0
  -17.0592   20.8971  -30.7237 C   0  0  0  0  0  0  0  0  0  0  0  0
  -18.1384   20.7140  -31.6313 C   0  0  0  0  0  0  0  0  0  0  0  0
  -18.3225   19.4441  -32.1811 C   0  0  0  0  0  0  0  0  0  0  0  0
  -19.5411   18.7226  -33.2674 S   0  0  0  0  0  0  0  0  0  0  0  0
  -22.8906   15.9479  -33.9530 C   0  0  0  0  0  0  0  0  0  0  0  0
  -22.8729   17.4387  -33.7889 C   0  0  0  0  0  0  0  0  0  0  0  0
  -24.0190   19.7787  -31.7154 N   0  0  0  0  0  0  0  0  0  0  0  0
  -24.3057   20.4396  -30.6479 C   0  0  0  0  0  0  0  0  0  0  0  0
  -23.8230   21.7996  -30.2871 C   0  0  0  0  0  0  0  0  0  0  0  0
  -22.7152   22.2591  -30.5553 O   0  0  0  0  0  0  0  0  0  0  0  0
  -24.7224   22.6283  -29.5634 O   0  0  0  0  0  0  0  0  0  0  0  0
  -30.0717   18.5206  -25.5834 C   0  0  0  0  0  0  0  0  0  0  0  0
  -29.6247   19.5461  -24.7431 F   0  0  0  0  0  0  0  0  0  0  0  0
  -30.7751   17.4695  -25.0321 C   0  0  0  0  0  0  0  0  0  0  0  0
  1  2  1  0
  2  3  1  0
  2  4  1  0
  4  5  1  0
  5  6  3  0
  6  7  1  0
  7  8  2  0
  8  9  1  0
  9 10  2  0
 10 11  1  0
 11 12  1  0
 12 13  1  0
 13 14  1  0
 14 15  1  0
 15 16  1  0
 16 17  1  0
 17 18  1  0
 18 19  1  0
 19 20  1  0
 20 21  1  0
 21 22  2  0
 22 23  1  0
 23 24  2  0
 24 25  1  0
 25 26  1  0
 26 27  2  0
 26 28  1  0
 28 29  1  0
 29 30  2  0
 30 31  1  0
 31 32  2  0
 32 33  1  0
 33 34  2  0
 34 35  1  0
 35 36  2  0
 36 37  1  0
 25 38  2  0
 38 39  1  0
 17 40  2  0
 40 41  1  0
 41 42  1  0
 42 43  2  0
 42 44  1  0
 10 45  1  0
 45 46  1  0
 45 47  2  0
 47  7  1  0
 41 15  2  0
 39 18  1  0
 38 21  1  0
 37 29  1  0
 36 31  1  0
M  END
$$$$
