
     RDKit          3D

 29 33  0  0  0  0  0  0  0  0999 V2000
  -35.8997   14.5774  -23.9393 C   0  0  0  0  0  0  0  0  0  0  0  0
  -34.8481   14.3247  -24.8474 O   0  0  0  0  0  0  0  0  0  0  0  0
  -33.5958   13.9048  -24.4688 C   0  0  0  0  0  0  0  0  0  0  0  0
  -33.5462   12.7304  -23.7248 C   0  0  0  0  0  0  0  0  0  0  0  0
  -34.7292   12.0323  -23.3810 N   0  0  0  0  0  0  0  0  0  0  0  0
  -36.0767   12.4304  -23.1329 C   0  0  0  0  0  0  0  0  0  0  0  0
  -36.8515   11.4523  -24.0309 C   0  0  2  0  0  0  0  0  0  0  0  0
  -38.1983   11.1938  -23.4189 C   0  0  0  0  0  0  0  0  0  0  0  0
  -38.8455    9.9551  -23.9759 C   0  0  0  0  0  0  0  0  0  0  0  0
  -37.8513    8.8509  -24.2571 C   0  0  0  0  0  0  0  0  0  0  0  0
  -36.6946    9.1140  -23.3868 N   0  0  0  0  0  0  0  0  0  0  0  0
  -35.9727   10.2051  -24.0019 C   0  0  2  0  0  0  0  0  0  0  0  0
  -34.7343   10.5710  -23.2091 C   0  0  0  0  0  0  0  0  0  0  0  0
  -32.2985   12.2857  -23.3359 C   0  0  0  0  0  0  0  0  0  0  0  0
  -32.2404   11.1352  -22.6067 F   0  0  0  0  0  0  0  0  0  0  0  0
  -31.1547   12.9674  -23.6651 C   0  0  0  0  0  0  0  0  0  0  0  0
  -31.2440   14.1271  -24.4015 C   0  0  0  0  0  0  0  0  0  0  0  0
  -30.0722   14.7911  -24.7036 C   0  0  0  0  0  0  0  0  0  0  0  0
  -28.9783   14.3154  -24.3113 O   0  0  0  0  0  0  0  0  0  0  0  0
  -30.1492   15.9546  -25.4266 C   0  0  0  0  0  0  0  0  0  0  0  0
  -28.9278   16.6706  -25.7569 C   0  0  0  0  0  0  0  0  0  0  0  0
  -28.9441   17.6355  -26.5595 O   0  0  0  0  0  0  0  0  0  0  0  0
  -27.7422   16.2724  -25.1719 O   0  0  0  0  0  0  0  0  0  0  0  0
  -31.3796   16.4237  -25.8266 C   0  0  0  0  0  0  0  0  0  0  0  0
  -32.5434   15.7718  -25.5315 N   0  0  0  0  0  0  0  0  0  0  0  0
  -33.8015   16.3245  -25.9476 C   0  0  0  0  0  0  0  0  0  0  0  0
  -34.7126   17.0890  -25.1054 C   0  0  0  0  0  0  0  0  0  0  0  0
  -33.7559   17.8795  -25.8786 C   0  0  0  0  0  0  0  0  0  0  0  0
  -32.4817   14.6346  -24.8284 C   0  0  0  0  0  0  0  0  0  0  0  0
  1  2  1  0
  2  3  1  0
  3  4  2  0
  4  5  1  0
  5  6  1  0
  7  6  1  1
  7  8  1  0
  8  9  1  0
  9 10  1  0
 10 11  1  0
 11 12  1  0
 12 13  1  1
  4 14  1  0
 14 15  1  0
 14 16  2  0
 16 17  1  0
 17 18  1  0
 18 19  2  0
 18 20  1  0
 20 21  1  0
 21 22  2  0
 21 23  1  0
 20 24  2  0
 24 25  1  0
 25 26  1  0
 26 27  1  0
 27 28  1  0
 25 29  1  0
 29  3  1  0
 13  5  1  0
 29 17  2  0
 12  7  1  0
 28 26  1  0
M  END
$$$$
