
     RDKit          3D

 18 20  0  0  0  0  0  0  0  0999 V2000
  -13.3397   16.6153  -31.5806 O   0  0  0  0  0  0  0  0  0  0  0  0
  -13.9325   15.5107  -31.5088 C   0  0  0  0  0  0  0  0  0  0  0  0
  -13.2495   14.3798  -31.3612 N   0  0  0  0  0  0  0  0  0  0  0  0
  -13.8368   13.1666  -31.2788 C   0  0  0  0  0  0  0  0  0  0  0  0
  -15.2125   13.1254  -31.3538 C   0  0  0  0  0  0  0  0  0  0  0  0
  -15.9920   14.2711  -31.5084 C   0  0  0  0  0  0  0  0  0  0  0  0
  -17.3568   14.2213  -31.5820 C   0  0  0  0  0  0  0  0  0  0  0  0
  -18.1309   15.3795  -31.7374 C   0  0  0  0  0  0  0  0  0  0  0  0
  -19.4976   15.2414  -31.8027 O   0  0  0  0  0  0  0  0  0  0  0  0
  -20.2988   15.0811  -32.9333 C   0  0  0  0  0  0  0  0  0  0  0  0
  -19.9175   13.8642  -33.7436 C   0  0  0  0  0  0  0  0  0  0  0  0
  -20.9012   13.4825  -34.7787 C   0  0  0  0  0  0  0  0  0  0  0  0
  -22.2723   13.7127  -34.4744 N   0  0  0  0  0  0  0  0  0  0  0  0
  -22.5493   14.9969  -33.9155 C   0  0  0  0  0  0  0  0  0  0  0  0
  -21.7779   15.0949  -32.6062 C   0  0  0  0  0  0  0  0  0  0  0  0
  -17.4578   16.5753  -31.8133 C   0  0  0  0  0  0  0  0  0  0  0  0
  -16.0810   16.5944  -31.7361 C   0  0  0  0  0  0  0  0  0  0  0  0
  -15.3085   15.4731  -31.5843 C   0  0  0  0  0  0  0  0  0  0  0  0
  1  2  2  0
  2  3  1  0
  3  4  1  0
  4  5  2  0
  5  6  1  0
  6  7  2  0
  7  8  1  0
  8  9  1  0
  9 10  1  0
 10 11  1  0
 11 12  1  0
 12 13  1  0
 13 14  1  0
 14 15  1  0
  8 16  2  0
 16 17  1  0
 17 18  2  0
 18  2  1  0
 18  6  1  0
 15 10  1  0
M  END
$$$$
