
     RDKit          3D

 34 38  0  0  0  0  0  0  0  0999 V2000
  -19.1197   22.7018  -42.3588 C   0  0  0  0  0  0  0  0  0  0  0  0
  -20.6018   22.6285  -42.3406 C   0  0  0  0  0  0  0  0  0  0  0  0
  -21.2941   23.2509  -43.3557 C   0  0  0  0  0  0  0  0  0  0  0  0
  -22.6737   23.2059  -43.3751 C   0  0  0  0  0  0  0  0  0  0  0  0
  -23.3161   22.5326  -42.3668 C   0  0  0  0  0  0  0  0  0  0  0  0
  -24.6596   22.4802  -42.3713 F   0  0  0  0  0  0  0  0  0  0  0  0
  -22.6009   21.9160  -41.3590 C   0  0  0  0  0  0  0  0  0  0  0  0
  -21.2248   21.9504  -41.3236 C   0  0  0  0  0  0  0  0  0  0  0  0
  -20.4719   21.3206  -40.2926 C   0  0  0  0  0  0  0  0  0  0  0  0
  -20.7271   21.6182  -39.0793 O   0  0  0  0  0  0  0  0  0  0  0  0
  -19.4355   20.3665  -40.4931 N   0  0  0  0  0  0  0  0  0  0  0  0
  -18.7613   19.7736  -39.3840 C   0  0  0  0  0  0  0  0  0  0  0  0
  -18.4819   18.4280  -39.3924 C   0  0  0  0  0  0  0  0  0  0  0  0
  -17.8344   17.8417  -38.3279 C   0  0  0  0  0  0  0  0  0  0  0  0
  -17.4304   18.5329  -37.2100 C   0  0  0  0  0  0  0  0  0  0  0  0
  -16.6749   17.9557  -36.1321 C   0  0  0  0  0  0  0  0  0  0  0  0
  -15.4075   18.2655  -36.1719 O   0  0  0  0  0  0  0  0  0  0  0  0
  -17.0311   17.1509  -35.0552 N   0  0  0  0  0  0  0  0  0  0  0  0
  -18.4639   16.9081  -34.8858 C   0  0  0  0  0  0  0  0  0  0  0  0
  -18.7978   15.7862  -34.0023 C   0  0  0  0  0  0  0  0  0  0  0  0
  -20.0337   15.7999  -33.3276 C   0  0  0  0  0  0  0  0  0  0  0  0
  -20.0913   14.6457  -32.5866 C   0  0  0  0  0  0  0  0  0  0  0  0
  -18.9174   13.9734  -32.8220 C   0  0  0  0  0  0  0  0  0  0  0  0
  -18.1391   14.6801  -33.6861 N   0  0  0  0  0  0  0  0  0  0  0  0
  -16.8175   14.1625  -34.0853 C   0  0  0  0  0  0  0  0  0  0  0  0
  -15.8352   15.2868  -33.8500 C   0  0  0  0  0  0  0  0  0  0  0  0
  -14.7337   14.9537  -33.1288 C   0  0  0  0  0  0  0  0  0  0  0  0
  -13.7622   15.8995  -32.8075 C   0  0  0  0  0  0  0  0  0  0  0  0
  -13.9458   17.1994  -33.2425 C   0  0  0  0  0  0  0  0  0  0  0  0
  -15.0478   17.5683  -33.9726 C   0  0  0  0  0  0  0  0  0  0  0  0
  -15.9864   16.6089  -34.2745 C   0  0  0  0  0  0  0  0  0  0  0  0
  -17.7275   19.9025  -37.2276 C   0  0  0  0  0  0  0  0  0  0  0  0
  -17.2248   20.8191  -35.8142 Cl  0  0  0  0  0  0  0  0  0  0  0  0
  -18.3723   20.4972  -38.2840 C   0  0  0  0  0  0  0  0  0  0  0  0
  1  2  1  0
  2  3  2  0
  3  4  1  0
  4  5  2  0
  5  6  1  0
  5  7  1  0
  7  8  2  0
  8  9  1  0
  9 10  2  0
  9 11  1  0
 11 12  1  0
 12 13  2  0
 13 14  1  0
 14 15  2  0
 15 16  1  0
 16 17  2  0
 16 18  1  0
 18 19  1  0
 19 20  1  0
 20 21  2  0
 21 22  1  0
 22 23  2  0
 23 24  1  0
 24 25  1  0
 25 26  1  0
 26 27  2  0
 27 28  1  0
 28 29  2  0
 29 30  1  0
 30 31  2  0
 15 32  1  0
 32 33  1  0
 32 34  2  0
  8  2  1  0
 34 12  1  0
 31 18  1  0
 24 20  1  0
 31 26  1  0
M  END
$$$$
