
     RDKit          3D

 25 27  0  0  0  0  0  0  0  0999 V2000
  -21.6831   14.2511  -35.2419 C   0  0  0  0  0  0  0  0  0  0  0  0
  -20.5369   15.2090  -34.9672 C   0  0  0  0  0  0  0  0  0  0  0  0
  -21.0522   16.3175  -34.0526 C   0  0  0  0  0  0  0  0  0  0  0  0
  -19.9445   17.3052  -33.7836 C   0  0  0  0  0  0  0  0  0  0  0  0
  -19.3647   17.1479  -32.5496 O   0  0  0  0  0  0  0  0  0  0  0  0
  -18.3250   17.7541  -31.9288 C   0  0  0  0  0  0  0  0  0  0  0  0
  -17.0523   17.2742  -31.8492 C   0  0  0  0  0  0  0  0  0  0  0  0
  -16.6988   16.0159  -32.4694 C   0  0  0  0  0  0  0  0  0  0  0  0
  -17.4542   15.5637  -33.3612 O   0  0  0  0  0  0  0  0  0  0  0  0
  -15.5313   15.2110  -32.1532 C   0  0  0  0  0  0  0  0  0  0  0  0
  -14.3934   15.2667  -32.9546 C   0  0  0  0  0  0  0  0  0  0  0  0
  -14.4279   16.1265  -34.0251 F   0  0  0  0  0  0  0  0  0  0  0  0
  -13.2794   14.4997  -32.6938 C   0  0  0  0  0  0  0  0  0  0  0  0
  -13.2709   13.6474  -31.6148 C   0  0  0  0  0  0  0  0  0  0  0  0
  -12.0868   12.8060  -31.3036 C   0  0  0  0  0  0  0  0  0  0  0  0
  -14.3758   13.5647  -30.8009 C   0  0  0  0  0  0  0  0  0  0  0  0
  -15.4892   14.3532  -31.0902 C   0  0  0  0  0  0  0  0  0  0  0  0
  -16.5830   14.2413  -30.2887 F   0  0  0  0  0  0  0  0  0  0  0  0
  -16.0504   17.9522  -31.2015 C   0  0  0  0  0  0  0  0  0  0  0  0
  -16.3172   19.1235  -30.6233 N   0  0  0  0  0  0  0  0  0  0  0  0
  -17.5392   19.6611  -30.6552 C   0  0  0  0  0  0  0  0  0  0  0  0
  -18.0787   20.7932  -30.1590 N   0  0  0  0  0  0  0  0  0  0  0  0
  -19.3469   20.8766  -30.4465 N   0  0  0  0  0  0  0  0  0  0  0  0
  -19.6962   19.7709  -31.1625 C   0  0  0  0  0  0  0  0  0  0  0  0
  -18.5770   18.9888  -31.3099 C   0  0  0  0  0  0  0  0  0  0  0  0
  1  2  1  0
  2  3  1  0
  3  4  1  0
  4  5  1  0
  5  6  1  0
  6  7  2  0
  7  8  1  0
  8  9  2  0
  8 10  1  0
 10 11  2  0
 11 12  1  0
 11 13  1  0
 13 14  2  0
 14 15  1  0
 14 16  1  0
 16 17  2  0
 17 18  1  0
  7 19  1  0
 19 20  2  0
 20 21  1  0
 21 22  1  0
 22 23  1  0
 23 24  2  0
 24 25  1  0
 25  6  1  0
 17 10  1  0
 25 21  2  0
M  END
$$$$
