
     RDKit          3D

 28 30  0  0  0  0  0  0  0  0999 V2000
  -26.0948   19.8577  -29.6529 O   0  0  0  0  0  0  0  0  0  0  0  0
  -26.7236   20.8268  -29.1886 C   0  0  0  0  0  0  0  0  0  0  0  0
  -26.0274   22.0425  -28.9510 N   0  0  0  0  0  0  0  0  0  0  0  0
  -25.9592   23.0036  -29.9173 O   0  0  0  0  0  0  0  0  0  0  0  0
  -28.1949   20.7713  -28.8655 C   0  0  0  0  0  0  0  0  0  0  0  0
  -28.2756   19.8147  -27.7073 C   0  0  0  0  0  0  0  0  0  0  0  0
  -28.5184   18.1379  -28.1513 S   0  0  0  0  0  6  0  0  0  0  0  0
  -28.7271   17.9236  -29.6120 O   0  0  0  0  0  0  0  0  0  0  0  0
  -27.4377   17.2350  -27.6263 O   0  0  0  0  0  0  0  0  0  0  0  0
  -30.0058   17.6071  -27.3588 C   0  0  0  0  0  0  0  0  0  0  0  0
  -29.9983   17.2998  -26.0139 C   0  0  0  0  0  0  0  0  0  0  0  0
  -31.1346   16.8821  -25.3559 C   0  0  0  0  0  0  0  0  0  0  0  0
  -32.3192   16.7637  -26.0489 C   0  0  0  0  0  0  0  0  0  0  0  0
  -33.4810   16.3401  -25.3909 O   0  0  0  0  0  0  0  0  0  0  0  0
  -33.4582   15.1629  -24.6524 C   0  0  0  0  0  0  0  0  0  0  0  0
  -33.0770   13.9532  -25.2059 C   0  0  0  0  0  0  0  0  0  0  0  0
  -33.0623   12.7975  -24.4527 C   0  0  0  0  0  0  0  0  0  0  0  0
  -33.4324   12.8410  -23.1258 C   0  0  0  0  0  0  0  0  0  0  0  0
  -33.4109   11.3578  -22.1690 Cl  0  0  0  0  0  0  0  0  0  0  0  0
  -33.8156   14.0220  -22.5449 C   0  0  0  0  0  0  0  0  0  0  0  0
  -33.8205   15.1623  -23.3231 C   0  0  0  0  0  0  0  0  0  0  0  0
  -32.3394   17.0640  -27.3763 C   0  0  0  0  0  0  0  0  0  0  0  0
  -31.1879   17.4863  -28.0396 C   0  0  0  0  0  0  0  0  0  0  0  0
  -28.5746   22.1560  -28.4419 C   0  0  0  0  0  0  0  0  0  0  0  0
  -29.8890   22.6390  -28.9073 C   0  0  0  0  0  0  0  0  0  0  0  0
  -30.6567   21.7027  -29.5823 O   0  0  0  0  0  0  0  0  0  0  0  0
  -29.8979   21.2515  -30.6564 C   0  0  0  0  0  0  0  0  0  0  0  0
  -28.8834   20.2842  -30.0943 C   0  0  0  0  0  0  0  0  0  0  0  0
  1  2  2  0
  2  3  1  0
  3  4  1  0
  2  5  1  0
  5  6  1  0
  6  7  1  0
  7  8  2  0
  7  9  2  0
  7 10  1  0
 10 11  2  0
 11 12  1  0
 12 13  2  0
 13 14  1  0
 14 15  1  0
 15 16  2  0
 16 17  1  0
 17 18  2  0
 18 19  1  0
 18 20  1  0
 20 21  2  0
 13 22  1  0
 22 23  2  0
  5 24  1  0
 24 25  1  0
 25 26  1  0
 26 27  1  0
 27 28  1  0
 28  5  1  0
 23 10  1  0
 21 15  1  0
M  END
$$$$
