
     RDKit          3D

 47 52  0  0  0  0  0  0  0  0999 V2000
  -24.0850   20.1170  -42.9052 C   0  0  0  0  0  0  0  0  0  0  0  0
  -22.7999   20.2201  -42.6798 C   0  0  0  0  0  0  0  0  0  0  0  0
  -22.2353   19.9960  -41.3498 C   0  0  0  0  0  0  0  0  0  0  0  0
  -22.4737   20.8368  -40.4351 O   0  0  0  0  0  0  0  0  0  0  0  0
  -21.4286   18.8862  -41.0127 N   0  0  0  0  0  0  0  0  0  0  0  0
  -20.5612   18.9685  -39.8637 C   0  0  0  0  0  0  0  0  0  0  0  0
  -20.0162   17.7889  -39.3754 C   0  0  0  0  0  0  0  0  0  0  0  0
  -19.1881   17.8291  -38.2741 C   0  0  0  0  0  0  0  0  0  0  0  0
  -18.9037   19.0359  -37.6618 C   0  0  0  0  0  0  0  0  0  0  0  0
  -18.0288   19.0455  -36.4852 C   0  0  0  0  0  0  0  0  0  0  0  0
  -18.4184   18.1979  -35.4006 N   0  0  0  0  0  0  0  0  0  0  0  0
  -19.7030   18.2369  -34.8136 C   0  0  0  0  0  0  0  0  0  0  0  0
  -20.5652   19.0494  -35.2757 O   0  0  0  0  0  0  0  0  0  0  0  0
  -20.0400   17.3931  -33.7292 N   0  0  0  0  0  0  0  0  0  0  0  0
  -21.3168   17.6119  -33.0930 C   0  0  0  0  0  0  0  0  0  0  0  0
  -22.2596   16.6408  -33.0648 C   0  0  0  0  0  0  0  0  0  0  0  0
  -23.4847   16.8640  -32.4361 C   0  0  0  0  0  0  0  0  0  0  0  0
  -24.4616   15.8848  -32.3963 O   0  0  0  0  0  0  0  0  0  0  0  0
  -25.5510   15.8483  -33.2859 C   0  0  0  0  0  0  0  0  0  0  0  0
  -23.7270   18.0896  -31.8410 C   0  0  0  0  0  0  0  0  0  0  0  0
  -22.7624   19.0790  -31.8717 C   0  0  0  0  0  0  0  0  0  0  0  0
  -22.9539   20.3156  -31.2940 O   0  0  0  0  0  0  0  0  0  0  0  0
  -22.3761   20.7291  -30.0736 C   0  0  0  0  0  0  0  0  0  0  0  0
  -21.5451   18.8198  -32.5113 C   0  0  0  0  0  0  0  0  0  0  0  0
  -19.1645   16.3827  -33.2645 C   0  0  0  0  0  0  0  0  0  0  0  0
  -17.8035   16.4373  -33.8124 C   0  0  0  0  0  0  0  0  0  0  0  0
  -16.7926   15.6065  -33.3052 C   0  0  0  0  0  0  0  0  0  0  0  0
  -15.5671   15.6444  -33.8423 N   0  0  0  0  0  0  0  0  0  0  0  0
  -15.2342   16.4410  -34.8553 C   0  0  0  0  0  0  0  0  0  0  0  0
  -13.9734   16.5380  -35.4556 N   0  0  0  0  0  0  0  0  0  0  0  0
  -13.6800   16.8911  -36.7973 C   0  0  0  0  0  0  0  0  0  0  0  0
  -14.3964   17.8035  -37.5275 C   0  0  0  0  0  0  0  0  0  0  0  0
  -14.0747   18.1310  -38.8558 C   0  0  0  0  0  0  0  0  0  0  0  0
  -13.0178   17.5560  -39.5111 C   0  0  0  0  0  0  0  0  0  0  0  0
  -12.6313   17.8327  -40.8373 N   0  0  0  0  0  0  0  0  0  0  0  0
  -11.3151   17.5708  -41.3346 C   0  0  0  0  0  0  0  0  0  0  0  0
  -10.6624   18.8623  -41.8544 C   0  0  0  0  0  0  0  0  0  0  0  0
  -11.6191   19.6474  -42.5792 N   0  0  0  0  0  0  0  0  0  0  0  0
  -10.9971   20.2038  -43.7554 C   0  0  0  0  0  0  0  0  0  0  0  0
  -12.7806   18.8816  -42.9861 C   0  0  0  0  0  0  0  0  0  0  0  0
  -13.5834   18.4138  -41.7697 C   0  0  0  0  0  0  0  0  0  0  0  0
  -12.2915   16.6249  -38.7582 C   0  0  0  0  0  0  0  0  0  0  0  0
  -12.5977   16.3000  -37.4640 C   0  0  0  0  0  0  0  0  0  0  0  0
  -16.2140   17.2356  -35.3339 N   0  0  0  0  0  0  0  0  0  0  0  0
  -17.4712   17.2590  -34.8503 C   0  0  0  0  0  0  0  0  0  0  0  0
  -19.4422   20.2055  -38.1445 C   0  0  0  0  0  0  0  0  0  0  0  0
  -20.2737   20.1613  -39.2512 C   0  0  0  0  0  0  0  0  0  0  0  0
  1  2  2  0
  2  3  1  0
  3  4  2  0
  3  5  1  0
  5  6  1  0
  6  7  2  0
  7  8  1  0
  8  9  2  0
  9 10  1  0
 10 11  1  0
 11 12  1  0
 12 13  2  0
 12 14  1  0
 14 15  1  0
 15 16  2  0
 16 17  1  0
 17 18  1  0
 18 19  1  0
 17 20  2  0
 20 21  1  0
 21 22  1  0
 22 23  1  0
 21 24  2  0
 14 25  1  0
 25 26  1  0
 26 27  2  0
 27 28  1  0
 28 29  2  0
 29 30  1  0
 30 31  1  0
 31 32  2  0
 32 33  1  0
 33 34  2  0
 34 35  1  0
 35 36  1  0
 36 37  1  0
 37 38  1  0
 38 39  1  0
 38 40  1  0
 40 41  1  0
 34 42  1  0
 42 43  2  0
 29 44  1  0
 44 45  2  0
  9 46  1  0
 46 47  2  0
 47  6  1  0
 45 11  1  0
 24 15  1  0
 45 26  1  0
 43 31  1  0
 41 35  1  0
M  END
$$$$
