
     RDKit          3D

 29 33  0  0  0  0  0  0  0  0999 V2000
  -19.6867   44.8971  -25.1479 C   0  0  0  0  0  0  0  0  0  0  0  0
  -19.5428   44.9807  -23.6222 C   0  0  2  0  0  0  0  0  0  0  0  0
  -20.3679   46.1901  -23.1690 C   0  0  0  0  0  0  0  0  0  0  0  0
  -19.8613   47.3437  -23.7113 O   0  0  0  0  0  0  0  0  0  0  0  0
  -18.5445   47.6123  -23.3341 C   0  0  0  0  0  0  0  0  0  0  0  0
  -17.6158   46.4904  -23.7753 C   0  0  0  0  0  0  0  0  0  0  0  0
  -18.1840   45.2717  -23.2526 N   0  0  0  0  0  0  0  0  0  0  0  0
  -17.4304   44.4343  -22.4120 C   0  0  0  0  0  0  0  0  0  0  0  0
  -17.8551   43.1294  -22.1592 C   0  0  0  0  0  0  0  0  0  0  0  0
  -17.1519   42.2871  -21.3340 C   0  0  0  0  0  0  0  0  0  0  0  0
  -17.6092   40.9061  -21.0712 C   0  0  0  0  0  0  0  0  0  0  0  0
  -18.5409   40.1914  -22.4224 S   0  0  0  0  0  6  0  0  0  0  0  0
  -17.6098   40.2473  -23.9289 C   0  0  0  0  0  0  0  0  0  0  0  0
  -18.8488   38.7571  -22.0445 O   0  0  0  0  0  0  0  0  0  0  0  0
  -19.8243   40.9432  -22.5698 O   0  0  0  0  0  0  0  0  0  0  0  0
  -16.9128   39.9868  -20.1710 C   0  0  0  0  0  0  0  0  0  0  0  0
  -18.1496   40.6951  -19.6896 C   0  0  0  0  0  0  0  0  0  0  0  0
  -16.0335   42.7341  -20.7616 N   0  0  0  0  0  0  0  0  0  0  0  0
  -15.5854   43.9997  -20.9821 C   0  0  0  0  0  0  0  0  0  0  0  0
  -14.3539   44.4350  -20.3360 C   0  0  0  0  0  0  0  0  0  0  0  0
  -14.1193   45.8017  -20.2519 C   0  0  0  0  0  0  0  0  0  0  0  0
  -12.9744   46.2582  -19.6577 C   0  0  0  0  0  0  0  0  0  0  0  0
  -12.0314   45.4107  -19.1321 C   0  0  0  0  0  0  0  0  0  0  0  0
  -12.2692   44.0538  -19.2185 C   0  0  0  0  0  0  0  0  0  0  0  0
  -11.5318   43.0182  -18.8009 N   0  0  0  0  0  0  0  0  0  0  0  0
  -12.1804   41.8864  -19.1153 C   0  0  0  0  0  0  0  0  0  0  0  0
  -13.3623   42.2052  -19.7497 C   0  0  0  0  0  0  0  0  0  0  0  0
  -13.4287   43.5780  -19.8199 C   0  0  0  0  0  0  0  0  0  0  0  0
  -16.2830   44.8003  -21.7864 N   0  0  0  0  0  0  0  0  0  0  0  0
  2  1  1  6
  2  3  1  0
  3  4  1  0
  4  5  1  0
  5  6  1  0
  6  7  1  0
  7  8  1  0
  8  9  2  0
  9 10  1  0
 10 11  1  0
 11 12  1  0
 12 13  1  0
 12 14  2  0
 12 15  2  0
 11 16  1  0
 16 17  1  0
 10 18  2  0
 18 19  1  0
 19 20  1  0
 20 21  2  0
 21 22  1  0
 22 23  2  0
 23 24  1  0
 24 25  1  0
 25 26  1  0
 26 27  2  0
 27 28  1  0
 19 29  2  0
  7  2  1  0
 29  8  1  0
 17 11  1  0
 28 20  1  0
 28 24  2  0
M  END
$$$$
