
     RDKit          3D

 39 41  0  0  0  0  0  0  0  0999 V2000
  -10.9876   49.0464  -12.9957 C   0  0  0  0  0  0  0  0  0  0  0  0
  -11.3417   48.1627  -14.0902 N   0  0  0  0  0  0  0  0  0  0  0  0
  -12.7294   47.8427  -13.9743 C   0  0  0  0  0  0  0  0  0  0  0  0
  -12.9164   46.3526  -14.2920 C   0  0  0  0  0  0  0  0  0  0  0  0
  -12.1470   46.0847  -15.4635 N   0  0  0  0  0  0  0  0  0  0  0  0
  -12.6358   45.0696  -16.3293 C   0  0  1  0  0  0  0  0  0  0  0  0
  -13.9941   45.4770  -16.8546 C   0  0  0  0  0  0  0  0  0  0  0  0
  -13.9267   45.9755  -18.2824 C   0  0  0  0  0  0  0  0  0  0  0  0
  -13.3667   44.9684  -19.2284 C   0  0  2  0  0  0  0  0  0  0  0  0
  -14.4152   44.2131  -19.9292 N   0  0  0  0  0  0  0  0  0  0  0  0
  -14.8745   44.5042  -21.1469 C   0  0  0  0  0  0  0  0  0  0  0  0
  -15.8616   43.6058  -21.5318 C   0  0  0  0  0  0  0  0  0  0  0  0
  -16.5767   43.5921  -22.8206 C   0  0  0  0  0  0  0  0  0  0  0  0
  -16.5779   42.4826  -23.6356 C   0  0  0  0  0  0  0  0  0  0  0  0
  -17.2635   42.4835  -24.8185 C   0  0  0  0  0  0  0  0  0  0  0  0
  -17.9825   43.5738  -25.2625 C   0  0  0  0  0  0  0  0  0  0  0  0
  -18.6772   43.5604  -26.4715 O   0  0  0  0  0  0  0  0  0  0  0  0
  -19.3731   44.6890  -26.8491 C   0  0  0  0  0  0  0  0  0  0  0  0
  -20.6914   44.9064  -26.5106 C   0  0  0  0  0  0  0  0  0  0  0  0
  -21.3618   46.0526  -26.9067 C   0  0  0  0  0  0  0  0  0  0  0  0
  -20.7277   47.0140  -27.6542 C   0  0  0  0  0  0  0  0  0  0  0  0
  -19.4113   46.8111  -27.9999 C   0  0  0  0  0  0  0  0  0  0  0  0
  -18.7500   45.6595  -27.5978 C   0  0  0  0  0  0  0  0  0  0  0  0
  -17.9668   44.6753  -24.4300 C   0  0  0  0  0  0  0  0  0  0  0  0
  -17.2874   44.6996  -23.2385 C   0  0  0  0  0  0  0  0  0  0  0  0
  -15.9992   42.7297  -20.4825 C   0  0  0  0  0  0  0  0  0  0  0  0
  -16.8042   41.6348  -20.2445 C   0  0  0  0  0  0  0  0  0  0  0  0
  -17.7393   41.2521  -21.2431 N   0  0  0  0  0  0  0  0  0  0  0  0
  -16.7124   40.9549  -19.0759 N   0  0  0  0  0  0  0  0  0  0  0  0
  -15.8323   41.3593  -18.1570 C   0  0  0  0  0  0  0  0  0  0  0  0
  -15.0358   42.4205  -18.3568 N   0  0  0  0  0  0  0  0  0  0  0  0
  -15.0870   43.1283  -19.4962 C   0  0  0  0  0  0  0  0  0  0  0  0
  -12.3950   44.0607  -18.5231 C   0  0  0  0  0  0  0  0  0  0  0  0
  -11.6615   44.9379  -17.4976 C   0  0  0  0  0  0  0  0  0  0  0  0
  -10.7635   46.0099  -15.1149 C   0  0  0  0  0  0  0  0  0  0  0  0
  -10.4592   47.0144  -14.0274 C   0  0  0  0  0  0  0  0  0  0  0  0
  -15.4619   44.9178  -20.3280 Cl  0  0  0  0  0  0  0  0  0  0  0  0
  -15.4606   44.9182  -20.3260 Cl  0  0  0  0  0  0  0  0  0  0  0  0
  -15.4595   44.9186  -20.3241 Cl  0  0  0  0  0  0  0  0  0  0  0  0
  1  2  1  0
  2  3  1  0
  3  4  1  0
  4  5  1  0
  6  5  1  1
  6  7  1  0
  7  8  1  0
  8  9  1  0
  9 10  1  1
 10 11  1  0
 11 12  2  0
 12 13  1  0
 13 14  2  0
 14 15  1  0
 15 16  2  0
 16 17  1  0
 17 18  1  0
 18 19  2  0
 19 20  1  0
 20 21  2  0
 21 22  1  0
 22 23  2  0
 16 24  1  0
 24 25  2  0
 12 26  1  0
 26 27  2  0
 27 28  1  0
 27 29  1  0
 29 30  2  0
 30 31  1  0
 31 32  2  0
  9 33  1  0
 33 34  1  0
  5 35  1  0
 35 36  1  0
 36  2  1  0
 34  6  1  0
 32 10  1  0
 25 13  1  0
 32 26  1  0
 23 18  1  0
M  END
$$$$
