
     RDKit          3D

 59 63  0  0  0  0  0  0  0  0999 V2000
  -30.9875   10.9613  -30.5005 C   0  0  0  0  0  0  0  0  0  0  0  0
  -31.0622   12.2970  -30.4749 O   0  0  0  0  0  0  0  0  0  0  0  0
  -30.5008   13.1158  -29.6316 C   0  0  1  0  0  0  0  0  0  0  0  0
  -29.1510   13.7111  -29.9821 C   0  0  0  0  0  0  0  0  0  0  0  0
  -28.6324   14.2767  -31.0414 C   0  0  0  0  0  0  0  0  0  0  0  0
  -27.3804   14.7746  -31.2193 O   0  0  0  0  0  0  0  0  0  0  0  0
  -26.1314   14.9175  -31.5407 C   0  0  1  0  0  0  0  0  0  0  0  0
  -25.6675   14.0911  -32.6909 C   0  0  0  0  0  0  0  0  0  0  0  0
  -25.8132   16.3551  -31.8491 O   0  0  0  0  0  0  0  0  0  0  0  0
  -25.9144   16.8851  -30.5239 C   0  0  0  0  0  0  0  0  0  0  0  0
  -26.4041   18.0889  -30.1632 C   0  0  0  0  0  0  0  0  0  0  0  0
  -26.8817   19.1336  -31.1141 C   0  0  0  0  0  0  0  0  0  0  0  0
  -26.4324   18.3341  -28.7971 C   0  0  0  0  0  0  0  0  0  0  0  0
  -26.9318   19.5441  -28.3858 O   0  0  0  0  0  0  0  0  0  0  0  0
  -25.9802   17.4001  -27.8855 C   0  0  0  0  0  0  0  0  0  0  0  0
  -26.1447   17.7392  -26.4830 C   0  0  0  0  0  0  0  0  0  0  0  0
  -26.6946   19.0774  -26.4753 O   0  0  0  0  0  0  0  0  0  0  0  0
  -25.7865   16.8744  -25.4902 C   0  0  0  0  0  0  0  0  0  0  0  0
  -25.2260   15.6760  -25.8522 C   0  0  0  0  0  0  0  0  0  0  0  0
  -24.2756   14.7272  -25.0710 C   0  0  0  0  0  0  0  0  0  0  0  0
  -24.0967   14.9114  -23.8757 N   0  0  0  0  0  0  0  0  0  0  0  0
  -23.8443   15.0026  -22.6528 N   0  0  0  0  0  0  0  0  0  0  0  0
  -24.3047   13.9814  -21.6762 C   0  0  0  0  0  0  0  0  0  0  0  0
  -23.0907   13.6631  -20.8413 C   0  0  0  0  0  0  0  0  0  0  0  0
  -21.8793   13.9418  -21.6344 N   0  0  0  0  0  0  0  0  0  0  0  0
  -20.7378   13.4166  -20.9568 C   0  0  0  0  0  0  0  0  0  0  0  0
  -21.7320   15.4132  -21.6581 C   0  0  0  0  0  0  0  0  0  0  0  0
  -23.0488   16.0684  -22.0468 C   0  0  0  0  0  0  0  0  0  0  0  0
  -25.0821   15.3342  -27.2462 C   0  0  0  0  0  0  0  0  0  0  0  0
  -24.5032   14.0131  -27.2717 O   0  0  0  0  0  0  0  0  0  0  0  0
  -25.4501   16.1451  -28.2474 C   0  0  0  0  0  0  0  0  0  0  0  0
  -25.4541   15.9618  -29.6175 C   0  0  0  0  0  0  0  0  0  0  0  0
  -25.0644   14.8246  -30.4464 C   0  0  0  0  0  0  0  0  0  0  0  0
  -24.2123   13.9143  -30.5051 O   0  0  0  0  0  0  0  0  0  0  0  0
  -26.4596   16.9969  -24.1447 N   0  0  0  0  0  0  0  0  0  0  0  0
  -27.6715   16.0083  -24.0649 C   0  0  0  0  0  0  0  0  0  0  0  0
  -28.1465   15.9744  -22.9720 O   0  0  0  0  0  0  0  0  0  0  0  0
  -28.0256   15.2876  -25.3335 C   0  0  0  0  0  0  0  0  0  0  0  0
  -27.8929   13.7621  -24.9324 C   0  0  0  0  0  0  0  0  0  0  0  0
  -28.5921   15.6604  -26.4611 C   0  0  0  0  0  0  0  0  0  0  0  0
  -29.2164   16.9709  -26.9858 C   0  0  0  0  0  0  0  0  0  0  0  0
  -30.1777   17.6510  -26.4210 C   0  0  0  0  0  0  0  0  0  0  0  0
  -31.2130   18.4519  -25.8839 C   0  0  2  0  0  0  0  0  0  0  0  0
  -31.1216   18.4060  -24.3172 C   0  0  0  0  0  0  0  0  0  0  0  0
  -32.6361   18.1724  -26.2091 C   0  0  2  0  0  0  0  0  0  0  0  0
  -33.3863   19.1888  -25.5446 O   0  0  0  0  0  0  0  0  0  0  0  0
  -33.2139   16.8683  -25.8001 C   0  0  1  0  0  0  0  0  0  0  0  0
  -34.6177   17.1391  -25.2772 C   0  0  0  0  0  0  0  0  0  0  0  0
  -33.4294   16.0082  -27.0482 C   0  0  1  0  0  0  0  0  0  0  0  0
  -33.3587   16.7897  -28.1975 O   0  0  0  0  0  0  0  0  0  0  0  0
  -32.4132   14.9081  -27.1499 C   0  0  1  0  0  0  0  0  0  0  0  0
  -32.4967   13.9888  -25.9887 C   0  0  0  0  0  0  0  0  0  0  0  0
  -32.5687   14.1203  -28.4951 C   0  0  2  0  0  0  0  0  0  0  0  0
  -32.9561   12.8529  -28.0850 O   0  0  0  0  0  0  0  0  0  0  0  0
  -32.5307   12.4438  -26.8145 C   0  0  0  0  0  0  0  0  0  0  0  0
  -33.0713   11.1734  -26.2378 C   0  0  0  0  0  0  0  0  0  0  0  0
  -31.7016   13.0938  -26.1404 O   0  0  0  0  0  0  0  0  0  0  0  0
  -31.3851   14.3106  -29.3453 C   0  0  2  0  0  0  0  0  0  0  0  0
  -31.6756   15.0476  -30.6565 C   0  0  0  0  0  0  0  0  0  0  0  0
  1  2  1  0
  3  2  1  6
  3  4  1  0
  4  5  2  0
  5  6  1  0
  6  7  1  0
  7  8  1  6
  7  9  1  0
  9 10  1  0
 10 11  2  0
 11 12  1  0
 11 13  1  0
 13 14  1  0
 13 15  2  0
 15 16  1  0
 16 17  1  0
 16 18  2  0
 18 19  1  0
 19 20  1  0
 20 21  2  0
 21 22  1  0
 22 23  1  0
 23 24  1  0
 24 25  1  0
 25 26  1  0
 25 27  1  0
 27 28  1  0
 19 29  2  0
 29 30  1  0
 29 31  1  0
 31 32  2  0
 32 33  1  0
 33 34  2  0
 18 35  1  0
 35 36  1  0
 36 37  2  0
 36 38  1  0
 38 39  1  0
 38 40  2  0
 40 41  1  0
 41 42  2  0
 42 43  1  0
 43 44  1  1
 43 45  1  0
 45 46  1  1
 45 47  1  0
 47 48  1  6
 47 49  1  0
 49 50  1  6
 49 51  1  0
 51 52  1  1
 51 53  1  0
 53 54  1  1
 54 55  1  0
 55 56  1  0
 55 57  2  0
 53 58  1  0
 58 59  1  6
 58  3  1  0
 33  7  1  0
 32 10  1  0
 31 15  1  0
 28 22  1  0
M  END
$$$$
