
     RDKit          3D

 30 34  0  0  0  0  0  0  0  0999 V2000
  -19.6618   21.5423  -41.3298 C   0  0  0  0  0  0  0  0  0  0  0  0
  -20.9571   21.9991  -40.7197 C   0  0  0  0  0  0  0  0  0  0  0  0
  -22.1400   22.1660  -41.3390 N   0  0  0  0  0  0  0  0  0  0  0  0
  -23.0849   22.5911  -40.4637 C   0  0  0  0  0  0  0  0  0  0  0  0
  -24.4253   22.9049  -40.5858 C   0  0  0  0  0  0  0  0  0  0  0  0
  -25.1699   23.3295  -39.4827 C   0  0  0  0  0  0  0  0  0  0  0  0
  -24.5579   23.4367  -38.2542 C   0  0  0  0  0  0  0  0  0  0  0  0
  -25.3333   23.8826  -37.1134 C   0  0  0  0  0  0  0  0  0  0  0  0
  -26.3056   23.2039  -36.6970 O   0  0  0  0  0  0  0  0  0  0  0  0
  -25.0192   25.0766  -36.4495 N   0  0  0  0  0  0  0  0  0  0  0  0
  -25.1196   26.3734  -37.1014 C   0  0  0  0  0  0  0  0  0  0  0  0
  -25.9494   27.3664  -36.3533 C   0  0  0  0  0  0  0  0  0  0  0  0
  -26.0017   27.2295  -34.8963 C   0  0  0  0  0  0  0  0  0  0  0  0
  -25.5485   25.9434  -34.3004 C   0  0  0  0  0  0  0  0  0  0  0  0
  -24.5651   25.1426  -35.0666 C   0  0  0  0  0  0  0  0  0  0  0  0
  -27.3912   27.4988  -34.3535 C   0  0  0  0  0  0  0  0  0  0  0  0
  -27.8980   28.8322  -34.7471 C   0  0  0  0  0  0  0  0  0  0  0  0
  -29.0958   29.1282  -34.6909 O   0  0  0  0  0  0  0  0  0  0  0  0
  -26.9116   29.8178  -35.2176 C   0  0  0  0  0  0  0  0  0  0  0  0
  -25.5694   29.5856  -34.9949 C   0  0  0  0  0  0  0  0  0  0  0  0
  -24.8983   30.6552  -35.5337 C   0  0  0  0  0  0  0  0  0  0  0  0
  -25.8307   31.4666  -36.0449 N   0  0  0  0  0  0  0  0  0  0  0  0
  -27.0364   30.9861  -35.8671 N   0  0  0  0  0  0  0  0  0  0  0  0
  -28.2945   31.6119  -36.3003 C   0  0  0  0  0  0  0  0  0  0  0  0
  -28.5094   31.3876  -37.7826 C   0  0  0  0  0  0  0  0  0  0  0  0
  -28.1467   33.0864  -35.9873 C   0  0  0  0  0  0  0  0  0  0  0  0
  -25.1239   28.3347  -34.2792 C   0  0  0  0  0  0  0  0  0  0  0  0
  -23.2075   23.1145  -38.1578 C   0  0  0  0  0  0  0  0  0  0  0  0
  -22.4584   22.6935  -39.2400 C   0  0  0  0  0  0  0  0  0  0  0  0
  -21.1760   22.3291  -39.4307 N   0  0  0  0  0  0  0  0  0  0  0  0
  1  2  1  0
  2  3  2  0
  3  4  1  0
  4  5  2  0
  5  6  1  0
  6  7  2  0
  7  8  1  0
  8  9  2  0
  8 10  1  0
 10 11  1  0
 11 12  1  0
 12 13  1  0
 13 14  1  0
 14 15  1  0
 13 16  1  0
 16 17  1  0
 17 18  2  0
 17 19  1  0
 19 20  2  0
 20 21  1  0
 21 22  2  0
 22 23  1  0
 23 24  1  0
 24 25  1  0
 24 26  1  0
 20 27  1  0
  7 28  1  0
 28 29  2  0
 29 30  1  0
 30  2  1  0
 29  4  1  0
 15 10  1  0
 23 19  1  0
 27 13  1  0
M  END
$$$$
