
     RDKit          3D

 26 29  0  0  0  0  0  0  0  0999 V2000
  -14.9925   18.6357  -32.1697 C   0  0  0  0  0  0  0  0  0  0  0  0
  -16.0408   17.5083  -32.2729 C   0  0  1  0  0  0  0  0  0  0  0  0
  -17.1262   18.0903  -33.1580 C   0  0  0  0  0  0  0  0  0  0  0  0
  -17.9373   18.9089  -32.3108 N   0  0  0  0  0  0  0  0  0  0  0  0
  -19.3135   18.9425  -32.1308 C   0  0  0  0  0  0  0  0  0  0  0  0
  -19.8138   20.1093  -31.9156 O   0  0  0  0  0  0  0  0  0  0  0  0
  -20.2518   17.8396  -32.1537 C   0  0  0  0  0  0  0  0  0  0  0  0
  -21.6373   17.8807  -32.3371 C   0  0  0  0  0  0  0  0  0  0  0  0
  -22.0721   16.6052  -32.2927 N   0  0  0  0  0  0  0  0  0  0  0  0
  -21.0643   15.7749  -32.0961 N   0  0  0  0  0  0  0  0  0  0  0  0
  -20.9774   14.4138  -31.9882 C   0  0  0  0  0  0  0  0  0  0  0  0
  -19.7441   13.8387  -31.7932 C   0  0  0  0  0  0  0  0  0  0  0  0
  -18.5874   14.6418  -31.7050 C   0  0  0  0  0  0  0  0  0  0  0  0
  -18.8057   15.9539  -31.8251 N   0  0  0  0  0  0  0  0  0  0  0  0
  -19.9637   16.5339  -32.0124 C   0  0  0  0  0  0  0  0  0  0  0  0
  -17.3376   14.0255  -31.5308 N   0  0  0  0  0  0  0  0  0  0  0  0
  -16.2672   14.3475  -30.6180 C   0  0  2  0  0  0  0  0  0  0  0  0
  -16.5869   15.3449  -29.5650 C   0  0  0  0  0  0  0  0  0  0  0  0
  -14.9517   14.5004  -31.2672 C   0  0  0  0  0  0  0  0  0  0  0  0
  -13.9629   13.6264  -30.8561 C   0  0  0  0  0  0  0  0  0  0  0  0
  -12.6863   13.5767  -31.3797 C   0  0  0  0  0  0  0  0  0  0  0  0
  -11.7876   12.6627  -30.8870 F   0  0  0  0  0  0  0  0  0  0  0  0
  -12.3545   14.4446  -32.3774 C   0  0  0  0  0  0  0  0  0  0  0  0
  -13.3100   15.3228  -32.8060 C   0  0  0  0  0  0  0  0  0  0  0  0
  -14.6258   15.4007  -32.2890 C   0  0  0  0  0  0  0  0  0  0  0  0
  -15.5110   16.3246  -32.7869 O   0  0  0  0  0  0  0  0  0  0  0  0
  2  1  1  6
  2  3  1  0
  3  4  1  0
  4  5  1  0
  5  6  2  0
  5  7  1  0
  7  8  1  0
  8  9  2  0
  9 10  1  0
 10 11  1  0
 11 12  2  0
 12 13  1  0
 13 14  2  0
 14 15  1  0
 13 16  1  0
 16 17  1  0
 17 18  1  6
 17 19  1  0
 19 20  2  0
 20 21  1  0
 21 22  1  0
 21 23  2  0
 23 24  1  0
 24 25  2  0
 25 26  1  0
 26  2  1  0
 15  7  2  0
 25 19  1  0
 15 10  1  0
M  END
$$$$
