
     RDKit          3D

 18 19  0  0  0  0  0  0  0  0999 V2000
  -14.7351   13.3248  -31.8626 C   0  0  0  0  0  0  0  0  0  0  0  0
  -14.7606   14.6904  -32.4446 C   0  0  0  0  0  0  0  0  0  0  0  0
  -13.6517   15.2054  -33.0795 C   0  0  0  0  0  0  0  0  0  0  0  0
  -13.7628   16.4777  -33.5894 C   0  0  0  0  0  0  0  0  0  0  0  0
  -14.9032   17.1807  -33.4704 N   0  0  0  0  0  0  0  0  0  0  0  0
  -15.9919   16.6709  -32.8453 C   0  0  0  0  0  0  0  0  0  0  0  0
  -17.1719   17.4518  -32.7463 N   0  0  0  0  0  0  0  0  0  0  0  0
  -18.6247   17.0756  -33.5689 S   0  0  0  0  0  6  0  0  0  0  0  0
  -19.7295   18.0284  -33.2363 O   0  0  0  0  0  0  0  0  0  0  0  0
  -18.4394   17.1500  -35.0700 O   0  0  0  0  0  0  0  0  0  0  0  0
  -19.1114   15.4582  -33.1182 C   0  0  0  0  0  0  0  0  0  0  0  0
  -19.4825   15.2291  -31.7987 C   0  0  0  0  0  0  0  0  0  0  0  0
  -19.8692   13.9568  -31.4433 C   0  0  0  0  0  0  0  0  0  0  0  0
  -19.9122   12.8934  -32.3131 C   0  0  0  0  0  0  0  0  0  0  0  0
  -20.3108   11.6050  -31.9238 N   0  0  0  0  0  0  0  0  0  0  0  0
  -19.5324   13.1638  -33.6280 C   0  0  0  0  0  0  0  0  0  0  0  0
  -19.1379   14.4181  -34.0340 C   0  0  0  0  0  0  0  0  0  0  0  0
  -15.8755   15.4350  -32.3532 N   0  0  0  0  0  0  0  0  0  0  0  0
  1  2  1  0
  2  3  2  0
  3  4  1  0
  4  5  2  0
  5  6  1  0
  6  7  1  0
  7  8  1  0
  8  9  2  0
  8 10  2  0
  8 11  1  0
 11 12  2  0
 12 13  1  0
 13 14  2  0
 14 15  1  0
 14 16  1  0
 16 17  2  0
  6 18  2  0
 18  2  1  0
 17 11  1  0
M  END
$$$$
