
     RDKit          3D

 25 28  0  0  0  0  0  0  0  0999 V2000
  -14.2392   42.3784  -19.6585 C   0  0  0  0  0  0  0  0  0  0  0  0
  -14.0839   42.9191  -21.0805 C   0  0  0  0  0  0  0  0  0  0  0  0
  -13.3039   44.2173  -21.0893 C   0  0  0  0  0  0  0  0  0  0  0  0
  -15.3432   43.1097  -21.7554 C   0  0  0  0  0  0  0  0  0  0  0  0
  -16.3821   42.2529  -22.0628 C   0  0  0  0  0  0  0  0  0  0  0  0
  -17.4569   42.6993  -22.7081 C   0  0  0  0  0  0  0  0  0  0  0  0
  -18.5953   41.9490  -23.0894 C   0  0  0  0  0  0  0  0  0  0  0  0
  -18.7272   40.5677  -22.8222 N   0  0  0  0  0  0  0  0  0  0  0  0
  -17.5627   39.8294  -22.3765 C   0  0  0  0  0  0  0  0  0  0  0  0
  -18.0365   38.7672  -21.3860 C   0  0  0  0  0  0  0  0  0  0  0  0
  -18.8397   37.8427  -22.1317 N   0  0  0  0  0  0  0  0  0  0  0  0
  -18.7680   36.4352  -21.9222 C   0  0  0  0  0  0  0  0  0  0  0  0
  -17.9245   35.7584  -21.2686 N   0  0  0  0  0  0  0  0  0  0  0  0
  -18.0283   34.3708  -21.1826 C   0  0  0  0  0  0  0  0  0  0  0  0
  -19.4515   33.8964  -21.3998 C   0  0  0  0  0  0  0  0  0  0  0  0
  -20.2789   33.9663  -20.1462 C   0  0  0  0  0  0  0  0  0  0  0  0
  -19.5110   32.5598  -22.0690 C   0  0  0  0  0  0  0  0  0  0  0  0
  -19.9451   35.2332  -22.5744 S   0  0  0  0  0  0  0  0  0  0  0  0
  -19.7527   38.3552  -23.1287 C   0  0  0  0  0  0  0  0  0  0  0  0
  -19.9694   39.8351  -22.9685 C   0  0  0  0  0  0  0  0  0  0  0  0
  -19.5858   42.5571  -23.7305 N   0  0  0  0  0  0  0  0  0  0  0  0
  -19.6224   43.8427  -24.0642 C   0  0  0  0  0  0  0  0  0  0  0  0
  -18.5567   44.6023  -23.7215 N   0  0  0  0  0  0  0  0  0  0  0  0
  -17.5084   44.0403  -23.0630 C   0  0  0  0  0  0  0  0  0  0  0  0
  -15.9646   44.6625  -22.4465 S   0  0  0  0  0  0  0  0  0  0  0  0
  1  2  1  0
  2  3  1  0
  2  4  1  0
  4  5  2  0
  5  6  1  0
  6  7  2  0
  7  8  1  0
  8  9  1  0
  9 10  1  0
 10 11  1  0
 11 12  1  0
 12 13  2  0
 13 14  1  0
 14 15  1  0
 15 16  1  0
 15 17  1  0
 15 18  1  0
 11 19  1  0
 19 20  1  0
  7 21  1  0
 21 22  2  0
 22 23  1  0
 23 24  2  0
 24 25  1  0
 25  4  1  0
 24  6  1  0
 20  8  1  0
 18 12  1  0
M  END
$$$$
