
     RDKit          3D

 23 25  0  0  0  0  0  0  0  0999 V2000
  -15.1534   44.3389  -19.4064 C   0  0  0  0  0  0  0  0  0  0  0  0
  -16.3396   43.4463  -19.5997 C   0  0  0  0  0  0  0  0  0  0  0  0
  -16.5192   43.0064  -20.9214 O   0  0  0  0  0  0  0  0  0  0  0  0
  -16.9608   41.7415  -21.2432 C   0  0  0  0  0  0  0  0  0  0  0  0
  -18.1214   41.2557  -20.7393 C   0  0  0  0  0  0  0  0  0  0  0  0
  -18.5423   39.9863  -21.0752 C   0  0  0  0  0  0  0  0  0  0  0  0
  -17.8326   39.1579  -21.9174 C   0  0  0  0  0  0  0  0  0  0  0  0
  -18.3074   37.8644  -22.2300 N   0  0  0  0  0  0  0  0  0  0  0  0
  -19.0795   37.5784  -23.2878 C   0  0  0  0  0  0  0  0  0  0  0  0
  -19.5277   38.9376  -24.3625 S   0  0  0  0  0  0  0  0  0  0  0  0
  -20.9035   38.4902  -25.4496 C   0  0  0  0  0  0  0  0  0  0  0  0
  -22.0116   37.8300  -24.6470 C   0  0  0  0  0  0  0  0  0  0  0  0
  -20.3955   37.4453  -26.4310 C   0  0  0  0  0  0  0  0  0  0  0  0
  -19.5203   36.3461  -23.5695 N   0  0  0  0  0  0  0  0  0  0  0  0
  -19.2029   35.2599  -22.7716 C   0  0  0  0  0  0  0  0  0  0  0  0
  -18.4162   35.5522  -21.6922 C   0  0  0  0  0  0  0  0  0  0  0  0
  -17.9800   36.8310  -21.4324 C   0  0  0  0  0  0  0  0  0  0  0  0
  -17.2556   37.0167  -20.4149 O   0  0  0  0  0  0  0  0  0  0  0  0
  -18.1837   33.9843  -20.8153 S   0  0  0  0  0  0  0  0  0  0  0  0
  -19.6843   33.1948  -21.5625 C   0  0  0  0  0  0  0  0  0  0  0  0
  -19.5706   33.8361  -22.9218 C   0  0  0  0  0  0  0  0  0  0  0  0
  -16.6429   39.6596  -22.4324 C   0  0  0  0  0  0  0  0  0  0  0  0
  -16.2167   40.9272  -22.1007 C   0  0  0  0  0  0  0  0  0  0  0  0
  1  2  1  0
  2  3  1  0
  3  4  1  0
  4  5  2  0
  5  6  1  0
  6  7  2  0
  7  8  1  0
  8  9  1  0
  9 10  1  0
 10 11  1  0
 11 12  1  0
 11 13  1  0
  9 14  2  0
 14 15  1  0
 15 16  2  0
 16 17  1  0
 17 18  2  0
 16 19  1  0
 19 20  1  0
 20 21  1  0
  7 22  1  0
 22 23  2  0
 23  4  1  0
 17  8  1  0
 21 15  1  0
M  END
$$$$
