
     RDKit          3D

 29 31  0  0  0  0  0  0  0  0999 V2000
  -15.5367   17.0607  -37.0269 Cl  0  0  0  0  0  0  0  0  0  0  0  0
  -20.1156   20.0383  -35.4941 O   0  0  0  0  0  0  0  0  0  0  0  0
  -19.9281   18.7965  -35.2616 C   0  0  0  0  0  0  0  0  0  0  0  0
  -21.0244   18.0983  -34.6960 N   0  0  0  0  0  0  0  0  0  0  0  0
  -20.7871   16.6996  -34.4439 C   0  0  0  0  0  0  0  0  0  0  0  0
  -21.8549   15.9733  -33.8796 C   0  0  0  0  0  0  0  0  0  0  0  0
  -21.7327   14.6364  -33.5986 C   0  0  0  0  0  0  0  0  0  0  0  0
  -20.5164   14.0613  -33.8999 C   0  0  0  0  0  0  0  0  0  0  0  0
  -19.4802   14.7529  -34.4443 C   0  0  0  0  0  0  0  0  0  0  0  0
  -19.5903   16.1223  -34.7377 C   0  0  0  0  0  0  0  0  0  0  0  0
  -18.4700   16.8417  -35.3209 C   0  0  0  0  0  0  0  0  0  0  0  0
  -18.2588   16.2230  -36.7242 C   0  0  0  0  0  0  0  0  0  0  0  0
  -17.0470   16.8793  -37.3626 C   0  0  0  0  0  0  0  0  0  0  0  0
  -15.9125   16.4577  -36.5354 N   0  0  0  0  0  0  0  0  0  0  0  0
  -14.6752   16.5374  -37.2318 C   0  0  0  0  0  0  0  0  0  0  0  0
  -14.2066   17.9245  -37.5555 C   0  0  0  0  0  0  0  0  0  0  0  0
  -12.9169   17.8408  -38.2847 C   0  0  0  0  0  0  0  0  0  0  0  0
  -11.7199   17.8414  -37.6235 C   0  0  0  0  0  0  0  0  0  0  0  0
  -10.5624   17.7605  -38.3588 C   0  0  0  0  0  0  0  0  0  0  0  0
  -10.5465   17.6784  -39.7329 C   0  0  0  0  0  0  0  0  0  0  0  0
   -9.2545   17.5925  -40.4567 C   0  0  0  0  0  0  0  0  0  0  0  0
   -8.2641   16.9950  -39.7019 F   0  0  0  0  0  0  0  0  0  0  0  0
   -8.8269   18.8407  -40.8115 F   0  0  0  0  0  0  0  0  0  0  0  0
   -9.4098   16.8365  -41.6161 F   0  0  0  0  0  0  0  0  0  0  0  0
  -11.7583   17.6770  -40.4179 C   0  0  0  0  0  0  0  0  0  0  0  0
  -12.9168   17.7583  -39.6779 C   0  0  0  0  0  0  0  0  0  0  0  0
  -15.9963   17.1666  -35.3005 C   0  0  0  0  0  0  0  0  0  0  0  0
  -17.1965   16.6740  -34.5087 C   0  0  0  0  0  0  0  0  0  0  0  0
  -18.7301   18.1828  -35.5468 O   0  0  0  0  0  0  0  0  0  0  0  0
  2  3  2  0
  3  4  1  0
  4  5  1  0
  5  6  2  0
  6  7  1  0
  7  8  2  0
  8  9  1  0
  9 10  2  0
 10 11  1  0
 11 12  1  0
 12 13  1  0
 13 14  1  0
 14 15  1  0
 15 16  1  0
 16 17  1  0
 17 18  2  0
 18 19  1  0
 19 20  2  0
 20 21  1  0
 21 22  1  0
 21 23  1  0
 21 24  1  0
 20 25  1  0
 25 26  2  0
 14 27  1  0
 27 28  1  0
 11 29  1  0
 29  3  1  0
 10  5  1  0
 28 11  1  0
 26 17  1  0
M  END
$$$$
