
     RDKit          3D

 21 22  0  0  0  0  0  0  0  0999 V2000
   -9.8949   21.8759   -9.1769 C   0  0  0  0  0  0  0  0  0  0  0  0
  -11.2684   22.3245   -9.6294 C   0  0  0  0  0  0  0  0  0  0  0  0
  -11.4655   22.3646  -11.0978 C   0  0  0  0  0  0  0  0  0  0  0  0
  -12.8063   22.8194  -11.5081 N   0  0  0  0  0  0  0  0  0  0  0  0
  -13.8407   21.8738  -11.6759 C   0  0  0  0  0  0  0  0  0  0  0  0
  -13.5590   20.5132  -11.5135 C   0  0  0  0  0  0  0  0  0  0  0  0
  -14.5407   19.5438  -11.6801 C   0  0  0  0  0  0  0  0  0  0  0  0
  -15.8226   19.8989  -12.0118 C   0  0  0  0  0  0  0  0  0  0  0  0
  -16.1310   21.2302  -12.1796 C   0  0  0  0  0  0  0  0  0  0  0  0
  -15.1476   22.1483  -12.0087 C   0  0  0  0  0  0  0  0  0  0  0  0
  -15.6192   23.8403  -12.2583 S   0  0  0  0  0  0  0  0  0  0  0  0
  -14.1906   24.8358  -12.0095 C   0  0  0  0  0  0  0  0  0  0  0  0
  -14.3424   26.2015  -12.1554 C   0  0  0  0  0  0  0  0  0  0  0  0
  -13.2458   27.0015  -11.9534 C   0  0  0  0  0  0  0  0  0  0  0  0
  -12.0229   26.4744  -11.6145 C   0  0  0  0  0  0  0  0  0  0  0  0
  -11.9360   25.0824  -11.4821 C   0  0  0  0  0  0  0  0  0  0  0  0
  -13.0023   24.2313  -11.6735 C   0  0  0  0  0  0  0  0  0  0  0  0
  -12.2312   21.5857   -8.8475 N   0  0  0  0  0  0  0  0  0  0  0  0
  -12.2195   22.1815   -7.4984 C   0  0  0  0  0  0  0  0  0  0  0  0
  -11.6925   20.2170   -8.6754 C   0  0  0  0  0  0  0  0  0  0  0  0
  -13.2456   22.7252  -10.9987 Cl  0  0  0  0  0  0  0  0  0  0  0  0
  1  2  1  0
  2  3  1  0
  3  4  1  0
  4  5  1  0
  5  6  2  0
  6  7  1  0
  7  8  2  0
  8  9  1  0
  9 10  2  0
 10 11  1  0
 11 12  1  0
 12 13  2  0
 13 14  1  0
 14 15  2  0
 15 16  1  0
 16 17  2  0
  2 18  1  0
 18 19  1  0
 18 20  1  0
 17  4  1  0
 10  5  1  0
 17 12  1  0
M  END
$$$$
