
     RDKit          3D

 26 28  0  0  0  0  0  0  0  0999 V2000
  -22.6053   38.9840  -26.5005 C   0  0  0  0  0  0  0  0  0  0  0  0
  -21.1745   39.0695  -26.9265 C   0  0  0  0  0  0  0  0  0  0  0  0
  -20.2699   38.6516  -25.8068 C   0  0  2  0  0  0  0  0  0  0  0  0
  -18.8689   38.3352  -26.2886 C   0  0  0  0  0  0  0  0  0  0  0  0
  -18.3018   39.5328  -26.7287 O   0  0  0  0  0  0  0  0  0  0  0  0
  -20.8630   37.5361  -25.1119 N   0  0  0  0  0  0  0  0  0  0  0  0
  -20.0940   36.8954  -24.1066 C   0  0  0  0  0  0  0  0  0  0  0  0
  -19.0439   37.5145  -23.5411 N   0  0  0  0  0  0  0  0  0  0  0  0
  -18.2942   36.9368  -22.5895 C   0  0  0  0  0  0  0  0  0  0  0  0
  -17.2114   37.6231  -21.9972 N   0  0  0  0  0  0  0  0  0  0  0  0
  -16.5092   38.6134  -22.7919 C   0  0  0  0  0  0  0  0  0  0  0  0
  -17.0867   39.9511  -22.6131 C   0  0  0  0  0  0  0  0  0  0  0  0
  -17.3975   40.4319  -21.3677 C   0  0  0  0  0  0  0  0  0  0  0  0
  -17.9519   41.7100  -21.2356 C   0  0  0  0  0  0  0  0  0  0  0  0
  -18.1805   42.4767  -22.3620 C   0  0  0  0  0  0  0  0  0  0  0  0
  -17.8676   41.9918  -23.6104 C   0  0  0  0  0  0  0  0  0  0  0  0
  -17.3262   40.7402  -23.7239 C   0  0  0  0  0  0  0  0  0  0  0  0
  -18.6231   35.6664  -22.1892 C   0  0  0  0  0  0  0  0  0  0  0  0
  -18.1228   34.7944  -21.2956 N   0  0  0  0  0  0  0  0  0  0  0  0
  -18.8447   33.6610  -21.3057 C   0  0  0  0  0  0  0  0  0  0  0  0
  -19.8221   33.8013  -22.2147 N   0  0  0  0  0  0  0  0  0  0  0  0
  -20.8385   32.8395  -22.5640 C   0  0  0  0  0  0  0  0  0  0  0  0
  -20.2770   31.6710  -23.3415 C   0  0  0  0  0  0  0  0  0  0  0  0
  -21.3736   32.2516  -21.2561 C   0  0  0  0  0  0  0  0  0  0  0  0
  -19.7076   35.0126  -22.7651 C   0  0  0  0  0  0  0  0  0  0  0  0
  -20.4174   35.6552  -23.7170 N   0  0  0  0  0  0  0  0  0  0  0  0
  1  2  1  0
  3  2  1  6
  3  4  1  0
  4  5  1  0
  3  6  1  0
  6  7  1  0
  7  8  2  0
  8  9  1  0
  9 10  1  0
 10 11  1  0
 11 12  1  0
 12 13  2  0
 13 14  1  0
 14 15  2  0
 15 16  1  0
 16 17  2  0
  9 18  2  0
 18 19  1  0
 19 20  2  0
 20 21  1  0
 21 22  1  0
 22 23  1  0
 22 24  1  0
 21 25  1  0
 25 26  2  0
 26  7  1  0
 17 12  1  0
 25 18  1  0
M  END
$$$$
