
     RDKit          3D

 26 29  0  0  0  0  0  0  0  0999 V2000
  -17.2456   19.7426  -42.7271 O   0  0  0  0  0  0  0  0  0  0  0  0
  -16.3907   19.2859  -41.8974 C   0  0  0  0  0  0  0  0  0  0  0  0
  -16.6670   19.3976  -40.5501 C   0  0  0  0  0  0  0  0  0  0  0  0
  -15.7203   18.8927  -39.6647 C   0  0  0  0  0  0  0  0  0  0  0  0
  -14.5541   18.3049  -40.1182 C   0  0  0  0  0  0  0  0  0  0  0  0
  -13.5923   17.7928  -39.2613 C   0  0  0  0  0  0  0  0  0  0  0  0
  -13.7922   17.8653  -37.9125 O   0  0  0  0  0  0  0  0  0  0  0  0
  -14.4711   16.8868  -37.1531 C   0  0  0  0  0  0  0  0  0  0  0  0
  -15.7340   17.4117  -36.5372 C   0  0  0  0  0  0  0  0  0  0  0  0
  -16.4898   16.3342  -35.7759 C   0  0  0  0  0  0  0  0  0  0  0  0
  -16.9391   16.9338  -34.4628 C   0  0  0  0  0  0  0  0  0  0  0  0
  -18.3430   16.8250  -34.2965 O   0  0  0  0  0  0  0  0  0  0  0  0
  -18.9384   15.6514  -33.8652 C   0  0  0  0  0  0  0  0  0  0  0  0
  -19.4150   15.5515  -32.5780 C   0  0  0  0  0  0  0  0  0  0  0  0
  -20.0124   14.4026  -32.1133 C   0  0  0  0  0  0  0  0  0  0  0  0
  -20.1285   13.3363  -32.9689 C   0  0  0  0  0  0  0  0  0  0  0  0
  -19.6632   13.3997  -34.2638 C   0  0  0  0  0  0  0  0  0  0  0  0
  -19.0711   14.5642  -34.6955 C   0  0  0  0  0  0  0  0  0  0  0  0
  -12.4277   17.2064  -39.7450 C   0  0  0  0  0  0  0  0  0  0  0  0
  -11.3287   16.6295  -39.1338 C   0  0  0  0  0  0  0  0  0  0  0  0
  -10.5126   16.2341  -40.1714 C   0  0  0  0  0  0  0  0  0  0  0  0
  -11.0716   16.5456  -41.2935 O   0  0  0  0  0  0  0  0  0  0  0  0
  -12.2383   17.1397  -41.1095 C   0  0  0  0  0  0  0  0  0  0  0  0
  -13.2045   17.6537  -41.9506 C   0  0  0  0  0  0  0  0  0  0  0  0
  -14.3676   18.2396  -41.4835 C   0  0  0  0  0  0  0  0  0  0  0  0
  -15.2793   18.7253  -42.3078 O   0  0  0  0  0  0  0  0  0  0  0  0
  1  2  2  0
  2  3  1  0
  3  4  2  0
  4  5  1  0
  5  6  2  0
  6  7  1  0
  7  8  1  0
  8  9  1  0
  9 10  1  0
 10 11  1  0
 11 12  1  0
 12 13  1  0
 13 14  2  0
 14 15  1  0
 15 16  2  0
 16 17  1  0
 17 18  2  0
  6 19  1  0
 19 20  1  0
 20 21  2  0
 21 22  1  0
 22 23  1  0
 23 24  1  0
 24 25  2  0
 25 26  1  0
 26  2  1  0
 25  5  1  0
 18 13  1  0
 23 19  2  0
M  END
$$$$
