
     RDKit          3D

 26 27  0  0  0  0  0  0  0  0999 V2000
  -20.8517   40.3099  -23.0881 C   0  0  0  0  0  0  0  0  0  0  0  0
  -19.4403   40.4002  -22.8443 N   0  0  0  0  0  0  0  0  0  0  0  0
  -18.9677   41.6461  -22.3612 C   0  0  2  0  0  0  0  0  0  0  0  0
  -19.5692   42.8673  -22.9711 C   0  0  0  0  0  0  0  0  0  0  0  0
  -19.3791   43.0051  -24.4413 C   0  0  2  0  0  0  0  0  0  0  0  0
  -18.0637   43.0588  -24.8493 O   0  0  0  0  0  0  0  0  0  0  0  0
  -20.0241   44.2832  -24.8664 C   0  0  0  0  0  0  0  0  0  0  0  0
  -21.2659   44.3079  -25.4666 C   0  0  0  0  0  0  0  0  0  0  0  0
  -21.8491   45.4939  -25.8542 C   0  0  0  0  0  0  0  0  0  0  0  0
  -21.2018   46.6872  -25.6498 C   0  0  0  0  0  0  0  0  0  0  0  0
  -19.9567   46.6521  -25.0471 C   0  0  0  0  0  0  0  0  0  0  0  0
  -19.3673   45.4768  -24.6575 C   0  0  0  0  0  0  0  0  0  0  0  0
  -17.4492   41.6195  -22.4984 C   0  0  0  0  0  0  0  0  0  0  0  0
  -16.9516   40.7245  -21.3816 C   0  0  0  0  0  0  0  0  0  0  0  0
  -17.9741   39.7147  -20.9700 C   0  0  0  0  0  0  0  0  0  0  0  0
  -18.9393   39.3235  -22.0201 C   0  0  2  0  0  0  0  0  0  0  0  0
  -18.3981   38.2605  -22.9859 C   0  0  0  0  0  0  0  0  0  0  0  0
  -17.8509   37.0962  -22.2824 C   0  0  0  0  0  0  0  0  0  0  0  0
  -16.6565   37.0712  -21.9085 O   0  0  0  0  0  0  0  0  0  0  0  0
  -18.6890   35.9455  -22.0054 C   0  0  0  0  0  0  0  0  0  0  0  0
  -20.0166   35.9113  -22.3777 C   0  0  0  0  0  0  0  0  0  0  0  0
  -20.7949   34.7999  -22.1043 C   0  0  0  0  0  0  0  0  0  0  0  0
  -20.2671   33.6979  -21.4534 C   0  0  0  0  0  0  0  0  0  0  0  0
  -18.9418   33.7210  -21.0766 C   0  0  0  0  0  0  0  0  0  0  0  0
  -18.1824   34.8244  -21.3521 C   0  0  0  0  0  0  0  0  0  0  0  0
  -19.2151   39.8055  -22.7281 Cl  0  0  0  0  0  0  0  0  0  0  0  0
  1  2  1  0
  2  3  1  0
  3  4  1  6
  4  5  1  0
  5  6  1  1
  5  7  1  0
  7  8  2  0
  8  9  1  0
  9 10  2  0
 10 11  1  0
 11 12  2  0
  3 13  1  0
 13 14  1  0
 14 15  1  0
 15 16  1  0
 16 17  1  6
 17 18  1  0
 18 19  2  0
 18 20  1  0
 20 21  2  0
 21 22  1  0
 22 23  2  0
 23 24  1  0
 24 25  2  0
 16  2  1  0
 25 20  1  0
 12  7  1  0
M  END
$$$$
