
     RDKit          3D

 27 29  0  0  0  0  0  0  0  0999 V2000
  -18.2721   14.5961  -31.9100 O   0  0  0  0  0  0  0  0  0  0  0  0
  -17.4385   15.4709  -32.2949 C   0  0  0  0  0  0  0  0  0  0  0  0
  -17.9008   16.6016  -33.0110 N   0  0  0  0  0  0  0  0  0  0  0  0
  -19.2702   16.7127  -33.3819 C   0  0  0  0  0  0  0  0  0  0  0  0
  -19.6919   17.6376  -34.3263 C   0  0  0  0  0  0  0  0  0  0  0  0
  -21.0187   17.7350  -34.6762 C   0  0  0  0  0  0  0  0  0  0  0  0
  -21.9520   16.9080  -34.0876 C   0  0  0  0  0  0  0  0  0  0  0  0
  -23.3041   16.9530  -34.3936 O   0  0  0  0  0  0  0  0  0  0  0  0
  -23.8379   16.4790  -35.5817 C   0  0  0  0  0  0  0  0  0  0  0  0
  -24.4531   17.3053  -36.4993 C   0  0  0  0  0  0  0  0  0  0  0  0
  -24.9875   16.8487  -37.6829 C   0  0  0  0  0  0  0  0  0  0  0  0
  -24.9209   15.5073  -37.9955 C   0  0  0  0  0  0  0  0  0  0  0  0
  -25.5738   14.8402  -39.4775 Cl  0  0  0  0  0  0  0  0  0  0  0  0
  -24.3097   14.6634  -37.0914 C   0  0  0  0  0  0  0  0  0  0  0  0
  -23.7726   15.1316  -35.8989 C   0  0  0  0  0  0  0  0  0  0  0  0
  -21.5320   15.9957  -33.1553 C   0  0  0  0  0  0  0  0  0  0  0  0
  -22.6434   14.9017  -32.3527 Cl  0  0  0  0  0  0  0  0  0  0  0  0
  -20.2066   15.9002  -32.8075 C   0  0  0  0  0  0  0  0  0  0  0  0
  -16.0246   15.3015  -31.9967 C   0  0  0  0  0  0  0  0  0  0  0  0
  -15.5313   14.2633  -31.2466 C   0  0  0  0  0  0  0  0  0  0  0  0
  -14.1963   14.1095  -30.9691 C   0  0  0  0  0  0  0  0  0  0  0  0
  -13.5217   12.4967  -29.8159 I   0  0  0  0  0  0  0  0  0  0  0  0
  -13.3068   15.0333  -31.4614 C   0  0  0  0  0  0  0  0  0  0  0  0
  -13.7650   16.1103  -32.2326 C   0  0  0  0  0  0  0  0  0  0  0  0
  -12.3732   17.5140  -32.9755 I   0  0  0  0  0  0  0  0  0  0  0  0
  -15.1099   16.2353  -32.4924 C   0  0  0  0  0  0  0  0  0  0  0  0
  -15.5370   17.3163  -33.2620 O   0  0  0  0  0  0  0  0  0  0  0  0
  1  2  2  0
  2  3  1  0
  3  4  1  0
  4  5  2  0
  5  6  1  0
  6  7  2  0
  7  8  1  0
  8  9  1  0
  9 10  2  0
 10 11  1  0
 11 12  2  0
 12 13  1  0
 12 14  1  0
 14 15  2  0
  7 16  1  0
 16 17  1  0
 16 18  2  0
  2 19  1  0
 19 20  2  0
 20 21  1  0
 21 22  1  0
 21 23  2  0
 23 24  1  0
 24 25  1  0
 24 26  2  0
 26 27  1  0
 18  4  1  0
 26 19  1  0
 15  9  1  0
M  END
$$$$
