
     RDKit          3D

 22 25  0  0  0  0  0  0  0  0999 V2000
  -21.7461   34.5748  -22.7569 C   0  0  0  0  0  0  0  0  0  0  0  0
  -20.5438   34.6051  -22.6443 C   0  0  0  0  0  0  0  0  0  0  0  0
  -19.0881   34.6643  -22.5196 C   0  0  0  0  0  0  0  0  0  0  0  0
  -18.4470   33.6650  -23.2062 O   0  0  0  0  0  0  0  0  0  0  0  0
  -18.7940   34.6167  -21.0128 C   0  0  0  0  0  0  0  0  0  0  0  0
  -18.9366   36.0559  -20.5270 C   0  0  0  0  0  0  0  0  0  0  0  0
  -19.3323   36.7926  -21.7345 C   0  0  0  0  0  0  0  0  0  0  0  0
  -19.1599   38.2416  -21.7731 C   0  0  0  0  0  0  0  0  0  0  0  0
  -18.4630   38.7587  -20.5045 C   0  0  0  0  0  0  0  0  0  0  0  0
  -18.7204   40.2416  -20.4902 C   0  0  0  0  0  0  0  0  0  0  0  0
  -18.4422   40.9174  -21.7781 C   0  0  0  0  0  0  0  0  0  0  0  0
  -17.9821   42.1751  -21.6649 C   0  0  0  0  0  0  0  0  0  0  0  0
  -17.6935   42.8863  -22.8921 C   0  0  0  0  0  0  0  0  0  0  0  0
  -17.6795   44.1437  -22.8986 O   0  0  0  0  0  0  0  0  0  0  0  0
  -17.4168   42.1745  -24.1295 C   0  0  0  0  0  0  0  0  0  0  0  0
  -17.7856   40.7415  -24.1839 C   0  0  0  0  0  0  0  0  0  0  0  0
  -18.6654   40.2497  -23.0586 C   0  0  0  0  0  0  0  0  0  0  0  0
  -18.3847   38.7628  -22.9416 C   0  0  0  0  0  0  0  0  0  0  0  0
  -18.6362   38.0435  -24.2269 C   0  0  0  0  0  0  0  0  0  0  0  0
  -19.0543   36.6208  -24.1100 C   0  0  0  0  0  0  0  0  0  0  0  0
  -18.5682   36.0491  -22.8338 C   0  0  0  0  0  0  0  0  0  0  0  0
  -17.1024   36.0630  -22.6603 C   0  0  0  0  0  0  0  0  0  0  0  0
  1  2  3  0
  2  3  1  0
  3  4  1  0
  3  5  1  0
  5  6  1  0
  6  7  1  0
  7  8  1  0
  8  9  1  0
  9 10  1  0
 10 11  1  0
 11 12  2  0
 12 13  1  0
 13 14  2  0
 13 15  1  0
 15 16  1  0
 16 17  1  0
 17 18  1  0
 18 19  1  0
 19 20  1  0
 20 21  1  0
 21 22  1  0
 21  3  1  0
 21  7  1  0
 18  8  1  0
 17 11  1  0
M  END
$$$$
