
     RDKit          3D

 32 34  0  0  0  0  0  0  0  0999 V2000
  -27.0641   28.0017  -33.7930 C   0  0  0  0  0  0  0  0  0  0  0  0
  -25.9867   27.0142  -33.4794 C   0  0  0  0  0  0  0  0  0  0  0  0
  -26.2616   25.6917  -33.4606 N   0  0  0  0  0  0  0  0  0  0  0  0
  -25.3286   24.7688  -33.1849 C   0  0  0  0  0  0  0  0  0  0  0  0
  -25.5873   23.4150  -33.1607 C   0  0  0  0  0  0  0  0  0  0  0  0
  -24.5859   22.5172  -32.8698 C   0  0  0  0  0  0  0  0  0  0  0  0
  -23.2883   22.9481  -32.5927 C   0  0  0  0  0  0  0  0  0  0  0  0
  -22.2185   21.9568  -32.2797 C   0  0  0  0  0  0  0  0  0  0  0  0
  -21.9846   21.0116  -33.3336 N   0  0  0  0  0  0  0  0  0  0  0  0
  -21.3088   21.4504  -34.5585 C   0  0  0  0  0  0  0  0  0  0  0  0
  -22.4049   19.6930  -33.2504 C   0  0  0  0  0  0  0  0  0  0  0  0
  -22.3819   18.6378  -34.1057 C   0  0  0  0  0  0  0  0  0  0  0  0
  -22.9126   17.4725  -33.6975 C   0  0  0  0  0  0  0  0  0  0  0  0
  -23.4427   17.3646  -32.4896 C   0  0  0  0  0  0  0  0  0  0  0  0
  -24.0931   16.2260  -31.8098 C   0  0  0  0  0  0  0  0  0  0  0  0
  -24.4279   15.2086  -32.4628 O   0  0  0  0  0  0  0  0  0  0  0  0
  -24.3378   16.2772  -30.4321 N   0  0  0  0  0  0  0  0  0  0  0  0
  -25.1876   15.3048  -29.7169 C   0  0  1  0  0  0  0  0  0  0  0  0
  -25.4550   15.8833  -28.3695 C   0  0  0  0  0  0  0  0  0  0  0  0
  -24.3027   15.8786  -27.4224 C   0  0  0  0  0  0  0  0  0  0  0  0
  -24.6686   16.5353  -26.1481 C   0  0  0  0  0  0  0  0  0  0  0  0
  -23.7938   16.7070  -25.2734 O   0  0  0  0  0  0  0  0  0  0  0  0
  -25.9574   16.9518  -25.9285 O   0  0  0  0  0  0  0  0  0  0  0  0
  -26.3467   14.9176  -30.5029 C   0  0  0  0  0  0  0  0  0  0  0  0
  -26.8825   15.7158  -31.2980 O   0  0  0  0  0  0  0  0  0  0  0  0
  -26.8957   13.6460  -30.3944 O   0  0  0  0  0  0  0  0  0  0  0  0
  -23.2452   18.9181  -31.7915 S   0  0  0  0  0  0  0  0  0  0  0  0
  -23.0271   24.2897  -32.6161 C   0  0  0  0  0  0  0  0  0  0  0  0
  -24.0412   25.1793  -32.9095 C   0  0  0  0  0  0  0  0  0  0  0  0
  -23.7613   26.5161  -32.9280 C   0  0  0  0  0  0  0  0  0  0  0  0
  -22.6142   26.9597  -32.6879 O   0  0  0  0  0  0  0  0  0  0  0  0
  -24.7341   27.4277  -33.2126 N   0  0  0  0  0  0  0  0  0  0  0  0
  1  2  1  0
  2  3  2  0
  3  4  1  0
  4  5  2  0
  5  6  1  0
  6  7  2  0
  7  8  1  0
  8  9  1  0
  9 10  1  0
  9 11  1  0
 11 12  2  0
 12 13  1  0
 13 14  2  0
 14 15  1  0
 15 16  2  0
 15 17  1  0
 17 18  1  0
 18 19  1  1
 19 20  1  0
 20 21  1  0
 21 22  2  0
 21 23  1  0
 18 24  1  0
 24 25  2  0
 24 26  1  0
 14 27  1  0
  7 28  1  0
 28 29  2  0
 29 30  1  0
 30 31  2  0
 30 32  1  0
 32  2  1  0
 29  4  1  0
 27 11  1  0
M  END
$$$$
