
     RDKit          3D

 27 29  0  0  0  0  0  0  0  0999 V2000
  -17.0991   43.8828  -23.6632 N   0  0  0  0  0  0  0  0  0  0  0  0
  -17.0919   42.8441  -23.1081 C   0  0  0  0  0  0  0  0  0  0  0  0
  -17.0808   41.5710  -22.4560 C   0  0  0  0  0  0  0  0  0  0  0  0
  -17.0350   41.4026  -21.0914 C   0  0  0  0  0  0  0  0  0  0  0  0
  -17.0313   40.1507  -20.5537 N   0  0  0  0  0  0  0  0  0  0  0  0
  -17.0717   39.0512  -21.3236 C   0  0  0  0  0  0  0  0  0  0  0  0
  -17.0730   37.7491  -20.7920 N   0  0  0  0  0  0  0  0  0  0  0  0
  -18.0052   36.7648  -21.2157 C   0  0  0  0  0  0  0  0  0  0  0  0
  -18.6419   36.8810  -22.4540 C   0  0  0  0  0  0  0  0  0  0  0  0
  -19.5478   35.9591  -22.9108 C   0  0  0  0  0  0  0  0  0  0  0  0
  -20.2282   36.0493  -24.1417 N   0  0  0  0  0  0  0  0  0  0  0  0
  -19.9728   36.9794  -25.1969 C   0  0  0  0  0  0  0  0  0  0  0  0
  -21.1285   37.9152  -25.4568 C   0  0  1  0  0  0  0  0  0  0  0  0
  -20.5522   39.3116  -25.4438 C   0  0  0  0  0  0  0  0  0  0  0  0
  -21.4113   40.2836  -26.0633 N   0  0  0  0  0  0  0  0  0  0  0  0
  -21.7481   39.8044  -27.3878 C   0  0  0  0  0  0  0  0  0  0  0  0
  -22.5424   38.5152  -27.1874 C   0  0  0  0  0  0  0  0  0  0  0  0
  -21.6595   37.5700  -26.6916 O   0  0  0  0  0  0  0  0  0  0  0  0
  -19.7962   34.8843  -22.0472 C   0  0  0  0  0  0  0  0  0  0  0  0
  -20.7589   33.8575  -22.4693 C   0  0  0  0  0  0  0  0  0  0  0  0
  -20.3021   33.2996  -23.6567 F   0  0  0  0  0  0  0  0  0  0  0  0
  -22.0156   34.3454  -22.7326 F   0  0  0  0  0  0  0  0  0  0  0  0
  -20.7614   32.8189  -21.5542 F   0  0  0  0  0  0  0  0  0  0  0  0
  -19.1538   34.7932  -20.8287 C   0  0  0  0  0  0  0  0  0  0  0  0
  -18.2878   35.7086  -20.4343 N   0  0  0  0  0  0  0  0  0  0  0  0
  -17.1173   39.2454  -22.6964 C   0  0  0  0  0  0  0  0  0  0  0  0
  -17.1214   40.4763  -23.2401 N   0  0  0  0  0  0  0  0  0  0  0  0
  1  2  3  0
  2  3  1  0
  3  4  2  0
  4  5  1  0
  5  6  2  0
  6  7  1  0
  7  8  1  0
  8  9  2  0
  9 10  1  0
 10 11  1  0
 11 12  1  0
 13 12  1  6
 13 14  1  0
 14 15  1  0
 15 16  1  0
 16 17  1  0
 17 18  1  0
 10 19  2  0
 19 20  1  0
 20 21  1  0
 20 22  1  0
 20 23  1  0
 19 24  1  0
 24 25  2  0
  6 26  1  0
 26 27  2  0
 27  3  1  0
 25  8  1  0
 18 13  1  0
M  END
$$$$
