
     RDKit          3D

 22 24  0  0  0  0  0  0  0  0999 V2000
  -35.9670   46.7674  -32.3971 C   0  0  0  0  0  0  0  0  0  0  0  0
  -36.0857   47.2656  -31.0366 N   0  0  0  0  0  0  0  0  0  0  0  0
  -34.8619   47.1739  -30.3178 C   0  0  0  0  0  0  0  0  0  0  0  0
  -34.9068   47.6904  -28.8958 C   0  0  0  0  0  0  0  0  0  0  0  0
  -35.8785   46.9693  -28.0290 C   0  0  0  0  0  0  0  0  0  0  0  0
  -35.9621   47.3700  -26.6323 C   0  0  0  0  0  0  0  0  0  0  0  0
  -36.2705   48.8336  -26.4124 C   0  0  0  0  0  0  0  0  0  0  0  0
  -36.3060   49.2044  -24.9720 C   0  0  0  0  0  0  0  0  0  0  0  0
  -36.1648   47.9954  -24.0703 C   0  0  0  0  0  0  0  0  0  0  0  0
  -34.8844   47.3427  -24.4649 C   0  0  0  0  0  0  0  0  0  0  0  0
  -33.8807   47.0527  -23.6179 C   0  0  0  0  0  0  0  0  0  0  0  0
  -32.7528   46.3913  -24.0873 C   0  0  0  0  0  0  0  0  0  0  0  0
  -32.6739   46.0380  -25.4168 C   0  0  0  0  0  0  0  0  0  0  0  0
  -33.6955   46.3305  -26.2916 C   0  0  0  0  0  0  0  0  0  0  0  0
  -34.8051   46.9867  -25.8184 C   0  0  0  0  0  0  0  0  0  0  0  0
  -37.2202   47.0328  -24.5678 C   0  0  0  0  0  0  0  0  0  0  0  0
  -38.1970   46.5228  -23.7779 C   0  0  0  0  0  0  0  0  0  0  0  0
  -39.1011   45.6425  -24.3613 C   0  0  0  0  0  0  0  0  0  0  0  0
  -39.0028   45.3002  -25.7080 C   0  0  0  0  0  0  0  0  0  0  0  0
  -37.9856   45.8391  -26.5059 C   0  0  0  0  0  0  0  0  0  0  0  0
  -37.1255   46.6918  -25.9026 C   0  0  0  0  0  0  0  0  0  0  0  0
  -35.7380   47.0399  -27.5668 Cl  0  0  0  0  0  0  0  0  0  0  0  0
  1  2  1  0
  2  3  1  0
  3  4  1  0
  4  5  1  0
  5  6  1  0
  6  7  1  0
  7  8  1  0
  8  9  1  0
  9 10  1  0
 10 11  2  0
 11 12  1  0
 12 13  2  0
 13 14  1  0
 14 15  2  0
  9 16  1  0
 16 17  2  0
 17 18  1  0
 18 19  2  0
 19 20  1  0
 20 21  2  0
 15  6  1  0
 21 16  1  0
 21  6  1  0
 15 10  1  0
M  END
$$$$
