
     RDKit          3D

 38 43  0  0  0  0  0  0  0  0999 V2000
  -18.0893   22.6852  -33.4173 O   0  0  0  0  0  0  0  0  0  0  0  0
  -18.2269   21.6308  -32.7222 C   0  0  0  0  0  0  0  0  0  0  0  0
  -17.2777   20.5535  -32.8814 C   0  0  0  0  0  0  0  0  0  0  0  0
  -16.4855   20.1778  -31.7894 C   0  0  0  0  0  0  0  0  0  0  0  0
  -16.6117   20.8425  -30.6073 F   0  0  0  0  0  0  0  0  0  0  0  0
  -15.5777   19.1619  -31.8484 C   0  0  0  0  0  0  0  0  0  0  0  0
  -15.4220   18.4720  -33.0128 C   0  0  0  0  0  0  0  0  0  0  0  0
  -16.1754   18.7960  -34.1232 C   0  0  0  0  0  0  0  0  0  0  0  0
  -15.9684   18.0348  -35.3059 N   0  0  0  0  0  0  0  0  0  0  0  0
  -14.7578   16.8330  -35.4361 S   0  0  0  0  0  6  0  0  0  0  0  0
  -14.3410   16.6569  -36.8668 O   0  0  0  0  0  0  0  0  0  0  0  0
  -13.5542   17.3176  -34.6736 O   0  0  0  0  0  0  0  0  0  0  0  0
  -15.3030   15.3220  -34.8632 N   0  0  0  0  0  0  0  0  0  0  0  0
  -14.7643   15.0321  -33.5715 C   0  0  0  0  0  0  0  0  0  0  0  0
  -15.7973   15.4866  -32.5910 C   0  0  0  0  0  0  0  0  0  0  0  0
  -17.0921   15.3149  -33.3153 C   0  0  1  0  0  0  0  0  0  0  0  0
  -17.9410   16.3948  -33.1224 F   0  0  0  0  0  0  0  0  0  0  0  0
  -16.7242   15.2177  -34.7678 C   0  0  0  0  0  0  0  0  0  0  0  0
  -17.0789   19.8243  -34.0254 C   0  0  0  0  0  0  0  0  0  0  0  0
  -17.8133   20.0958  -35.1290 F   0  0  0  0  0  0  0  0  0  0  0  0
  -19.3231   21.4989  -31.7766 C   0  0  0  0  0  0  0  0  0  0  0  0
  -19.5726   22.1037  -30.5728 C   0  0  0  0  0  0  0  0  0  0  0  0
  -20.7276   21.6164  -30.0407 N   0  0  0  0  0  0  0  0  0  0  0  0
  -21.2175   20.7007  -30.9016 C   0  0  0  0  0  0  0  0  0  0  0  0
  -22.3310   19.9114  -30.8792 N   0  0  0  0  0  0  0  0  0  0  0  0
  -22.5863   19.0668  -31.8920 C   0  0  0  0  0  0  0  0  0  0  0  0
  -21.7749   18.9370  -32.9901 C   0  0  0  0  0  0  0  0  0  0  0  0
  -22.1048   17.9979  -34.0665 C   0  0  0  0  0  0  0  0  0  0  0  0
  -21.3094   16.9227  -34.4065 C   0  0  0  0  0  0  0  0  0  0  0  0
  -21.6479   16.0884  -35.3941 N   0  0  0  0  0  0  0  0  0  0  0  0
  -22.7818   16.2631  -36.0992 C   0  0  0  0  0  0  0  0  0  0  0  0
  -23.1676   15.3416  -37.1981 C   0  0  0  0  0  0  0  0  0  0  0  0
  -23.2624   13.8820  -36.9835 C   0  0  0  0  0  0  0  0  0  0  0  0
  -24.5181   14.6608  -36.9871 C   0  0  0  0  0  0  0  0  0  0  0  0
  -23.5671   17.3046  -35.7809 N   0  0  0  0  0  0  0  0  0  0  0  0
  -23.2639   18.1821  -34.7823 C   0  0  0  0  0  0  0  0  0  0  0  0
  -20.6450   19.7254  -33.0324 C   0  0  0  0  0  0  0  0  0  0  0  0
  -20.3763   20.5988  -31.9898 C   0  0  0  0  0  0  0  0  0  0  0  0
  1  2  2  0
  2  3  1  0
  3  4  2  0
  4  5  1  0
  4  6  1  0
  6  7  2  0
  7  8  1  0
  8  9  1  0
  9 10  1  0
 10 11  2  0
 10 12  2  0
 10 13  1  0
 13 14  1  0
 14 15  1  0
 15 16  1  0
 16 17  1  6
 16 18  1  0
  8 19  2  0
 19 20  1  0
  2 21  1  0
 21 22  2  0
 22 23  1  0
 23 24  1  0
 24 25  2  0
 25 26  1  0
 26 27  2  0
 27 28  1  0
 28 29  2  0
 29 30  1  0
 30 31  2  0
 31 32  1  0
 32 33  1  0
 33 34  1  0
 31 35  1  0
 35 36  2  0
 27 37  1  0
 37 38  2  0
 19  3  1  0
 38 21  1  0
 18 13  1  0
 38 24  1  0
 36 28  1  0
 34 32  1  0
M  END
$$$$
