
     RDKit          3D

 22 25  0  0  0  0  0  0  0  0999 V2000
  -14.3457   17.8623  -35.3658 C   0  0  0  0  0  0  0  0  0  0  0  0
  -14.4241   17.7166  -34.2266 C   0  0  0  0  0  0  0  0  0  0  0  0
  -14.5039   17.5241  -32.7659 C   0  0  2  0  0  0  0  0  0  0  0  0
  -13.9302   18.5503  -32.0619 O   0  0  0  0  0  0  0  0  0  0  0  0
  -13.9023   16.2110  -32.3272 C   0  0  0  0  0  0  0  0  0  0  0  0
  -15.0862   15.2445  -32.1297 C   0  0  0  0  0  0  0  0  0  0  0  0
  -16.1503   15.9563  -32.8820 C   0  0  1  0  0  0  0  0  0  0  0  0
  -17.5512   15.5674  -32.7033 C   0  0  2  0  0  0  0  0  0  0  0  0
  -17.8524   14.1109  -32.9524 C   0  0  0  0  0  0  0  0  0  0  0  0
  -19.3186   13.9160  -32.5452 C   0  0  0  0  0  0  0  0  0  0  0  0
  -20.1611   14.7676  -33.4616 C   0  0  0  0  0  0  0  0  0  0  0  0
  -21.4505   14.3966  -33.8025 C   0  0  0  0  0  0  0  0  0  0  0  0
  -22.2656   15.1249  -34.6374 C   0  0  0  0  0  0  0  0  0  0  0  0
  -23.5667   14.7286  -34.9727 O   0  0  0  0  0  0  0  0  0  0  0  0
  -21.7584   16.3114  -35.1709 C   0  0  0  0  0  0  0  0  0  0  0  0
  -20.4701   16.6813  -34.8301 C   0  0  0  0  0  0  0  0  0  0  0  0
  -19.6691   15.9366  -33.9924 C   0  0  0  0  0  0  0  0  0  0  0  0
  -18.3322   16.4254  -33.7132 C   0  0  1  0  0  0  0  0  0  0  0  0
  -18.2617   17.8416  -33.1978 C   0  0  0  0  0  0  0  0  0  0  0  0
  -16.8613   18.2957  -33.0430 C   0  0  0  0  0  0  0  0  0  0  0  0
  -15.9519   17.3730  -32.3307 C   0  0  2  0  0  0  0  0  0  0  0  0
  -15.9891   17.4073  -30.8469 C   0  0  0  0  0  0  0  0  0  0  0  0
  1  2  3  0
  2  3  1  0
  3  4  1  1
  3  5  1  0
  5  6  1  0
  7  6  1  1
  7  8  1  0
  8  9  1  6
  9 10  1  0
 10 11  1  0
 11 12  2  0
 12 13  1  0
 13 14  1  0
 13 15  2  0
 15 16  1  0
 16 17  2  0
 17 18  1  0
 18 19  1  1
 19 20  1  0
 20 21  1  0
 21 22  1  1
 21  3  1  0
 21  7  1  0
 18  8  1  0
 17 11  1  0
M  END
$$$$
