
     RDKit          3D

 30 34  0  0  0  0  0  0  0  0999 V2000
    1.1566    9.3344  -39.8158 O   0  0  0  0  0  0  0  0  0  0  0  0
    1.4324    8.0098  -39.1632 S   0  0  0  0  0  6  0  0  0  0  0  0
    1.2720    6.9630  -40.2520 O   0  0  0  0  0  0  0  0  0  0  0  0
    0.2302    7.7391  -37.9521 C   0  0  0  0  0  0  0  0  0  0  0  0
   -0.0377    6.4553  -37.5213 C   0  0  0  0  0  0  0  0  0  0  0  0
   -1.0153    6.2616  -36.5395 C   0  0  0  0  0  0  0  0  0  0  0  0
   -1.7109    7.3217  -35.9985 C   0  0  0  0  0  0  0  0  0  0  0  0
   -1.4446    8.6052  -36.4277 C   0  0  0  0  0  0  0  0  0  0  0  0
   -0.4685    8.7961  -37.4076 C   0  0  0  0  0  0  0  0  0  0  0  0
    3.0264    8.0088  -38.5747 N   0  0  0  0  0  0  0  0  0  0  0  0
    3.7252    9.2514  -38.8317 C   0  0  0  0  0  0  0  0  0  0  0  0
    5.1219    9.2229  -38.2202 C   0  0  0  0  0  0  0  0  0  0  0  0
    5.0907    8.7466  -36.8737 N   0  0  0  0  0  0  0  0  0  0  0  0
    5.6404    9.5231  -35.8307 C   0  0  0  0  0  0  0  0  0  0  0  0
    5.7596    8.9890  -34.5680 N   0  0  0  0  0  0  0  0  0  0  0  0
    6.2459    9.6596  -33.5246 C   0  0  0  0  0  0  0  0  0  0  0  0
    6.3399    9.0045  -32.1833 C   0  0  0  0  0  0  0  0  0  0  0  0
    6.8525    9.5212  -31.0456 C   0  0  0  0  0  0  0  0  0  0  0  0
    6.8386    8.7581  -29.9387 C   0  0  0  0  0  0  0  0  0  0  0  0
    6.3240    7.5183  -29.9861 C   0  0  0  0  0  0  0  0  0  0  0  0
    5.8104    7.4164  -31.7578 S   0  0  0  0  0  0  0  0  0  0  0  0
    6.6444   10.9251  -33.7020 N   0  0  0  0  0  0  0  0  0  0  0  0
    6.5467   11.5016  -34.9396 C   0  0  0  0  0  0  0  0  0  0  0  0
    6.9622   12.8055  -35.1280 C   0  0  0  0  0  0  0  0  0  0  0  0
    6.8753   13.3974  -36.3698 C   0  0  0  0  0  0  0  0  0  0  0  0
    6.3714   12.6929  -37.4417 C   0  0  0  0  0  0  0  0  0  0  0  0
    5.9496   11.3926  -37.2842 C   0  0  0  0  0  0  0  0  0  0  0  0
    6.0451   10.8209  -36.0327 C   0  0  0  0  0  0  0  0  0  0  0  0
    4.4521    7.4636  -36.6539 C   0  0  0  0  0  0  0  0  0  0  0  0
    3.0200    7.6331  -37.1884 C   0  0  0  0  0  0  0  0  0  0  0  0
  1  2  2  0
  2  3  2  0
  2  4  1  0
  4  5  2  0
  5  6  1  0
  6  7  2  0
  7  8  1  0
  8  9  2  0
  2 10  1  0
 10 11  1  0
 11 12  1  0
 12 13  1  0
 13 14  1  0
 14 15  2  0
 15 16  1  0
 16 17  1  0
 17 18  2  0
 18 19  1  0
 19 20  2  0
 20 21  1  0
 16 22  2  0
 22 23  1  0
 23 24  2  0
 24 25  1  0
 25 26  2  0
 26 27  1  0
 27 28  2  0
 13 29  1  0
 29 30  1  0
  9  4  1  0
 30 10  1  0
 28 14  1  0
 21 17  1  0
 28 23  1  0
M  END
$$$$
