
     RDKit          3D

 34 37  0  0  0  0  0  0  0  0999 V2000
  -23.8343   18.5300  -33.8611 C   0  0  0  0  0  0  0  0  0  0  0  0
  -24.6077   18.1203  -32.7613 O   0  0  0  0  0  0  0  0  0  0  0  0
  -25.0759   19.0933  -31.8907 C   0  0  0  0  0  0  0  0  0  0  0  0
  -26.4095   19.5541  -31.9440 C   0  0  0  0  0  0  0  0  0  0  0  0
  -26.8583   20.5133  -31.0810 C   0  0  0  0  0  0  0  0  0  0  0  0
  -28.1703   21.0079  -31.1328 N   0  0  0  0  0  0  0  0  0  0  0  0
  -28.9725   21.3216  -30.0088 C   0  0  0  0  0  0  0  0  0  0  0  0
  -29.4436   22.5327  -29.7580 N   0  0  0  0  0  0  0  0  0  0  0  0
  -30.1894   22.8609  -28.7122 C   0  0  0  0  0  0  0  0  0  0  0  0
  -30.5045   21.8718  -27.8105 C   0  0  0  0  0  0  0  0  0  0  0  0
  -31.2708   22.1733  -26.7170 F   0  0  0  0  0  0  0  0  0  0  0  0
  -30.0420   20.5906  -28.0194 C   0  0  0  0  0  0  0  0  0  0  0  0
  -30.3364   19.5373  -27.0824 N   0  0  0  0  0  0  0  0  0  0  0  0
  -29.6070   18.3334  -26.9772 C   0  0  0  0  0  0  0  0  0  0  0  0
  -29.4436   17.4958  -28.0885 C   0  0  0  0  0  0  0  0  0  0  0  0
  -28.7317   16.3124  -27.9907 C   0  0  0  0  0  0  0  0  0  0  0  0
  -28.1715   15.9425  -26.7868 C   0  0  0  0  0  0  0  0  0  0  0  0
  -28.3409   16.7745  -25.7076 C   0  0  0  0  0  0  0  0  0  0  0  0
  -29.0410   17.9246  -25.8321 N   0  0  0  0  0  0  0  0  0  0  0  0
  -27.7861   16.4252  -24.4501 N   0  0  0  0  0  0  0  0  0  0  0  0
  -27.0631   15.2079  -24.3455 C   0  0  0  0  0  0  0  0  0  0  0  0
  -26.2113   15.0115  -23.4282 O   0  0  0  0  0  0  0  0  0  0  0  0
  -27.3450   14.1532  -25.3667 C   0  0  0  0  0  0  0  0  0  0  0  0
  -26.2073   13.1880  -25.4447 C   0  0  0  0  0  0  0  0  0  0  0  0
  -28.6447   13.4659  -25.0164 C   0  0  0  0  0  0  0  0  0  0  0  0
  -27.4582   14.7703  -26.6603 O   0  0  0  0  0  0  0  0  0  0  0  0
  -29.2918   20.3531  -29.1092 N   0  0  0  0  0  0  0  0  0  0  0  0
  -25.9593   21.0314  -30.1358 C   0  0  0  0  0  0  0  0  0  0  0  0
  -24.6521   20.6144  -30.0453 C   0  0  0  0  0  0  0  0  0  0  0  0
  -23.7224   21.0859  -29.1387 O   0  0  0  0  0  0  0  0  0  0  0  0
  -23.3788   20.2585  -28.0461 C   0  0  0  0  0  0  0  0  0  0  0  0
  -24.2355   19.6350  -30.9453 C   0  0  0  0  0  0  0  0  0  0  0  0
  -22.9246   19.1913  -30.8845 O   0  0  0  0  0  0  0  0  0  0  0  0
  -22.5539   17.9247  -30.3700 C   0  0  0  0  0  0  0  0  0  0  0  0
  1  2  1  0
  2  3  1  0
  3  4  2  0
  4  5  1  0
  5  6  1  0
  6  7  1  0
  7  8  2  0
  8  9  1  0
  9 10  2  0
 10 11  1  0
 10 12  1  0
 12 13  1  0
 13 14  1  0
 14 15  2  0
 15 16  1  0
 16 17  2  0
 17 18  1  0
 18 19  2  0
 18 20  1  0
 20 21  1  0
 21 22  2  0
 21 23  1  0
 23 24  1  0
 23 25  1  0
 23 26  1  0
 12 27  2  0
  5 28  2  0
 28 29  1  0
 29 30  1  0
 30 31  1  0
 29 32  2  0
 32 33  1  0
 33 34  1  0
 32  3  1  0
 27  7  1  0
 19 14  1  0
 26 17  1  0
M  END
$$$$
