
     RDKit          3D

 22 23  0  0  0  0  0  0  0  0999 V2000
  -21.2506   31.9495  -24.1857 C   0  0  0  0  0  0  0  0  0  0  0  0
  -21.2907   31.9391  -22.6313 C   0  0  0  0  0  0  0  0  0  0  0  0
  -22.0218   30.6465  -22.2252 C   0  0  0  0  0  0  0  0  0  0  0  0
  -20.0204   31.9075  -22.2042 O   0  0  0  0  0  0  0  0  0  0  0  0
  -18.9567   32.7193  -22.1040 C   0  0  0  0  0  0  0  0  0  0  0  0
  -19.1103   34.1109  -22.3229 C   0  0  0  0  0  0  0  0  0  0  0  0
  -18.1182   35.0094  -22.2486 C   0  0  0  0  0  0  0  0  0  0  0  0
  -18.3069   36.4120  -22.4758 N   0  0  0  0  0  0  0  0  0  0  0  0
  -19.3220   36.9618  -23.1227 N   0  0  0  0  0  0  0  0  0  0  0  0
  -19.1869   38.2999  -23.1527 C   0  0  0  0  0  0  0  0  0  0  0  0
  -20.1104   39.3005  -23.7824 C   0  0  0  0  0  0  0  0  0  0  0  0
  -20.4327   40.4198  -22.8105 C   0  0  0  0  0  0  0  0  0  0  0  0
  -19.4846   39.8408  -25.0546 C   0  0  0  0  0  0  0  0  0  0  0  0
  -21.4085   38.6442  -24.1623 C   0  0  0  0  0  0  0  0  0  0  0  0
  -18.0699   38.5558  -22.5117 O   0  0  0  0  0  0  0  0  0  0  0  0
  -17.5268   37.4321  -22.0974 C   0  0  0  0  0  0  0  0  0  0  0  0
  -16.4598   37.3457  -21.4579 O   0  0  0  0  0  0  0  0  0  0  0  0
  -16.8404   34.5687  -21.9364 C   0  0  0  0  0  0  0  0  0  0  0  0
  -15.5366   35.7339  -21.8367 Cl  0  0  0  0  0  0  0  0  0  0  0  0
  -16.6135   33.2429  -21.7120 C   0  0  0  0  0  0  0  0  0  0  0  0
  -17.6789   32.3326  -21.7992 C   0  0  0  0  0  0  0  0  0  0  0  0
  -17.3322   30.6198  -21.4988 Cl  0  0  0  0  0  0  0  0  0  0  0  0
  1  2  1  0
  2  3  1  0
  2  4  1  0
  4  5  1  0
  5  6  2  0
  6  7  1  0
  7  8  1  0
  8  9  1  0
  9 10  2  0
 10 11  1  0
 11 12  1  0
 11 13  1  0
 11 14  1  0
 10 15  1  0
 15 16  1  0
 16 17  2  0
  7 18  2  0
 18 19  1  0
 18 20  1  0
 20 21  2  0
 21 22  1  0
 21  5  1  0
 16  8  1  0
M  END
$$$$
