
     RDKit          3D

 39 43  0  0  0  0  0  0  0  0999 V2000
  -16.5063   40.9610  -21.4042 C   0  0  0  0  0  0  0  0  0  0  0  0
  -17.6074   40.1091  -21.1853 O   0  0  0  0  0  0  0  0  0  0  0  0
  -18.4419   39.7670  -22.2609 C   0  0  0  0  0  0  0  0  0  0  0  0
  -18.9850   40.7841  -23.0178 C   0  0  0  0  0  0  0  0  0  0  0  0
  -19.8074   40.5156  -24.0807 C   0  0  0  0  0  0  0  0  0  0  0  0
  -20.3588   41.5148  -24.8457 C   0  0  0  0  0  0  0  0  0  0  0  0
  -20.1122   42.8790  -24.5888 N   0  0  0  0  0  0  0  0  0  0  0  0
  -20.7038   43.9244  -25.4516 C   0  0  0  0  0  0  0  0  0  0  0  0
  -21.9370   44.4342  -24.8083 C   0  0  0  0  0  0  0  0  0  0  0  0
  -21.7946   45.8213  -24.2269 C   0  0  0  0  0  0  0  0  0  0  0  0
  -20.4708   45.8750  -23.6379 N   0  0  0  0  0  0  0  0  0  0  0  0
  -20.3022   46.9123  -22.6757 C   0  0  0  0  0  0  0  0  0  0  0  0
  -21.3603   46.9633  -21.6171 C   0  0  0  0  0  0  0  0  0  0  0  0
  -20.1483   48.2340  -23.3534 C   0  0  0  0  0  0  0  0  0  0  0  0
  -19.5287   46.0263  -24.7255 C   0  0  0  0  0  0  0  0  0  0  0  0
  -19.6692   44.9559  -25.7668 C   0  0  0  0  0  0  0  0  0  0  0  0
  -21.1651   41.1248  -25.8804 N   0  0  0  0  0  0  0  0  0  0  0  0
  -21.4208   39.8471  -26.1559 C   0  0  0  0  0  0  0  0  0  0  0  0
  -22.2726   39.4680  -27.2512 N   0  0  0  0  0  0  0  0  0  0  0  0
  -23.2480   40.4027  -27.7622 C   0  0  0  0  0  0  0  0  0  0  0  0
  -23.6978   39.9652  -29.1265 C   0  0  0  0  0  0  0  0  0  0  0  0
  -24.4074   38.6314  -28.9583 C   0  0  0  0  0  0  0  0  0  0  0  0
  -24.5854   38.1020  -30.2143 F   0  0  0  0  0  0  0  0  0  0  0  0
  -25.6595   38.8194  -28.3987 F   0  0  0  0  0  0  0  0  0  0  0  0
  -23.6379   37.6977  -28.0698 C   0  0  0  0  0  0  0  0  0  0  0  0
  -22.1931   38.1721  -27.8722 C   0  0  0  0  0  0  0  0  0  0  0  0
  -20.8708   38.9007  -25.3951 N   0  0  0  0  0  0  0  0  0  0  0  0
  -20.0849   39.1816  -24.3823 C   0  0  0  0  0  0  0  0  0  0  0  0
  -19.5412   38.1717  -23.6250 C   0  0  0  0  0  0  0  0  0  0  0  0
  -18.7188   38.4566  -22.5627 C   0  0  0  0  0  0  0  0  0  0  0  0
  -18.1741   37.4580  -21.8044 O   0  0  0  0  0  0  0  0  0  0  0  0
  -18.9614   36.3548  -21.4269 C   0  0  0  0  0  0  0  0  0  0  0  0
  -18.2743   35.1165  -22.0017 C   0  0  0  0  0  0  0  0  0  0  0  0
  -18.6093   33.9659  -21.0676 C   0  0  0  0  0  0  0  0  0  0  0  0
  -19.2353   32.8728  -21.7872 N   0  0  0  0  0  0  0  0  0  0  0  0
  -19.7333   31.8696  -20.8663 C   0  0  0  0  0  0  0  0  0  0  0  0
  -20.8714   31.2363  -21.6771 C   0  0  0  0  0  0  0  0  0  0  0  0
  -21.5385   32.4700  -22.2451 C   0  0  0  0  0  0  0  0  0  0  0  0
  -20.3949   33.4026  -22.4731 C   0  0  0  0  0  0  0  0  0  0  0  0
  1  2  1  0
  2  3  1  0
  3  4  2  0
  4  5  1  0
  5  6  2  0
  6  7  1  0
  7  8  1  0
  8  9  1  0
  9 10  1  0
 10 11  1  0
 11 12  1  0
 12 13  1  0
 12 14  1  0
 11 15  1  0
 15 16  1  0
  6 17  1  0
 17 18  2  0
 18 19  1  0
 19 20  1  0
 20 21  1  0
 21 22  1  0
 22 23  1  0
 22 24  1  0
 22 25  1  0
 25 26  1  0
 18 27  1  0
 27 28  2  0
 28 29  1  0
 29 30  2  0
 30 31  1  0
 31 32  1  0
 32 33  1  0
 33 34  1  0
 34 35  1  0
 35 36  1  0
 36 37  1  0
 37 38  1  0
 38 39  1  0
 30  3  1  0
 39 35  1  0
 28  5  1  0
 16  8  1  0
 26 19  1  0
M  END
$$$$
