
     RDKit          3D

 17 17  0  0  0  0  0  0  0  0999 V2000
  -16.3066   20.6754  -30.7138 C   0  0  0  0  0  0  0  0  0  0  0  0
  -16.2369   19.1905  -30.9170 C   0  0  0  0  0  0  0  0  0  0  0  0
  -17.4312   18.6416  -31.4287 O   0  0  0  0  0  0  0  0  0  0  0  0
  -17.6022   17.3112  -31.7849 C   0  0  0  0  0  0  0  0  0  0  0  0
  -16.9035   16.2732  -31.2134 C   0  0  0  0  0  0  0  0  0  0  0  0
  -17.0711   14.9426  -31.5666 C   0  0  0  0  0  0  0  0  0  0  0  0
  -16.3222   13.9029  -30.9440 N   0  0  0  0  0  0  0  0  0  0  0  0
  -15.6760   14.0676  -29.6936 C   0  0  0  0  0  0  0  0  0  0  0  0
  -14.8363   13.0077  -29.0738 C   0  0  0  0  0  0  0  0  0  0  0  0
  -15.8460   15.1801  -29.1109 O   0  0  0  0  0  0  0  0  0  0  0  0
  -18.0048   14.6776  -32.5563 C   0  0  0  0  0  0  0  0  0  0  0  0
  -18.7178   15.6805  -33.1473 C   0  0  0  0  0  0  0  0  0  0  0  0
  -18.5312   16.9943  -32.7771 C   0  0  0  0  0  0  0  0  0  0  0  0
  -19.2901   18.0438  -33.4085 C   0  0  0  0  0  0  0  0  0  0  0  0
  -18.7081   19.0467  -33.8908 O   0  0  0  0  0  0  0  0  0  0  0  0
  -20.6732   18.0127  -33.5198 O   0  0  0  0  0  0  0  0  0  0  0  0
  -21.5350   18.6902  -32.6354 C   0  0  0  0  0  0  0  0  0  0  0  0
  1  2  1  0
  2  3  1  0
  3  4  1  0
  4  5  2  0
  5  6  1  0
  6  7  1  0
  7  8  1  0
  8  9  1  0
  8 10  2  0
  6 11  2  0
 11 12  1  0
 12 13  2  0
 13 14  1  0
 14 15  2  0
 14 16  1  0
 16 17  1  0
 13  4  1  0
M  END
$$$$
