
     RDKit          3D

 16 18  0  0  0  0  0  0  0  0999 V2000
  -17.3182   39.6565  -20.9703 O   0  0  0  0  0  0  0  0  0  0  0  0
  -18.0983   39.1845  -21.8526 C   0  0  0  0  0  0  0  0  0  0  0  0
  -18.7405   40.1488  -22.6816 N   0  0  0  0  0  0  0  0  0  0  0  0
  -19.6203   39.8487  -23.8060 C   0  0  0  0  0  0  0  0  0  0  0  0
  -20.6322   38.8414  -23.2988 C   0  0  0  0  0  0  0  0  0  0  0  0
  -20.1131   37.4547  -23.6780 C   0  0  0  0  0  0  0  0  0  0  0  0
  -19.1002   37.0044  -22.6867 C   0  0  0  0  0  0  0  0  0  0  0  0
  -18.2289   37.7272  -21.8959 C   0  0  0  0  0  0  0  0  0  0  0  0
  -17.5106   36.8940  -21.1643 O   0  0  0  0  0  0  0  0  0  0  0  0
  -17.8370   35.6564  -21.4065 C   0  0  0  0  0  0  0  0  0  0  0  0
  -17.3447   34.4671  -20.8705 C   0  0  0  0  0  0  0  0  0  0  0  0
  -17.9160   33.3065  -21.3507 C   0  0  0  0  0  0  0  0  0  0  0  0
  -18.9206   33.3093  -22.3092 C   0  0  0  0  0  0  0  0  0  0  0  0
  -19.4960   32.1472  -22.7931 O   0  0  0  0  0  0  0  0  0  0  0  0
  -19.3826   34.5060  -22.8166 C   0  0  0  0  0  0  0  0  0  0  0  0
  -18.8349   35.6768  -22.3595 C   0  0  0  0  0  0  0  0  0  0  0  0
  1  2  2  0
  2  3  1  0
  3  4  1  0
  4  5  1  0
  5  6  1  0
  6  7  1  0
  7  8  2  0
  8  9  1  0
  9 10  1  0
 10 11  2  0
 11 12  1  0
 12 13  2  0
 13 14  1  0
 13 15  1  0
 15 16  2  0
  8  2  1  0
 16 10  1  0
 16  7  1  0
M  END
$$$$
