
     RDKit          3D

 43 46  0  0  0  0  0  0  0  0999 V2000
   -7.9184   20.5081  -43.1013 C   0  0  0  0  0  0  0  0  0  0  0  0
   -8.8419   19.5837  -43.6357 O   0  0  0  0  0  0  0  0  0  0  0  0
   -9.6115   18.8115  -42.7800 C   0  0  0  0  0  0  0  0  0  0  0  0
   -9.1250   18.3384  -41.5863 C   0  0  0  0  0  0  0  0  0  0  0  0
   -9.8897   17.5582  -40.7126 C   0  0  0  0  0  0  0  0  0  0  0  0
   -9.3079   17.0856  -39.4244 C   0  0  0  0  0  0  0  0  0  0  0  0
  -11.1797   17.2205  -41.0062 C   0  0  0  0  0  0  0  0  0  0  0  0
  -12.2751   16.2673  -40.0488 S   0  0  0  0  0  0  0  0  0  0  0  0
  -13.3242   17.0244  -39.0185 C   0  0  0  0  0  0  0  0  0  0  0  0
  -13.3210   17.5596  -37.7289 C   0  0  0  0  0  0  0  0  0  0  0  0
  -14.3632   18.1179  -37.2753 N   0  0  0  0  0  0  0  0  0  0  0  0
  -15.4679   18.2615  -37.8715 C   0  0  0  0  0  0  0  0  0  0  0  0
  -16.7620   18.8156  -37.6573 N   0  0  0  0  0  0  0  0  0  0  0  0
  -17.9552   18.2022  -38.1187 C   0  0  0  0  0  0  0  0  0  0  0  0
  -17.7960   17.1897  -38.8504 O   0  0  0  0  0  0  0  0  0  0  0  0
  -19.2881   18.6715  -37.7965 C   0  0  0  0  0  0  0  0  0  0  0  0
  -20.2620   18.6386  -38.7660 C   0  0  0  0  0  0  0  0  0  0  0  0
  -21.5572   19.0681  -38.5334 C   0  0  0  0  0  0  0  0  0  0  0  0
  -21.8889   19.5481  -37.2839 C   0  0  0  0  0  0  0  0  0  0  0  0
  -23.2775   20.0021  -37.0563 C   0  0  0  0  0  0  0  0  0  0  0  0
  -23.9141   20.1906  -38.3413 N   0  0  0  0  0  0  0  0  0  0  0  0
  -23.7274   21.4821  -38.9203 C   0  0  0  0  0  0  0  0  0  0  0  0
  -23.9041   21.5362  -40.4038 C   0  0  0  0  0  0  0  0  0  0  0  0
  -24.6464   22.4823  -38.2076 C   0  0  0  0  0  0  0  0  0  0  0  0
  -24.5507   22.2014  -36.7039 C   0  0  0  0  0  0  0  0  0  0  0  0
  -24.2193   23.8955  -38.5320 C   0  0  0  0  0  0  0  0  0  0  0  0
  -26.0749   22.2336  -38.5987 C   0  0  0  0  0  0  0  0  0  0  0  0
  -20.9495   19.5936  -36.3055 C   0  0  0  0  0  0  0  0  0  0  0  0
  -19.6419   19.1541  -36.5591 C   0  0  0  0  0  0  0  0  0  0  0  0
  -15.0070   17.4256  -39.4878 S   0  0  0  0  0  0  0  0  0  0  0  0
  -11.6597   17.7155  -42.2341 C   0  0  0  0  0  0  0  0  0  0  0  0
  -10.9119   18.4804  -43.0908 C   0  0  0  0  0  0  0  0  0  0  0  0
  -11.5035   18.9568  -44.3614 C   0  0  0  0  0  0  0  0  0  0  0  0
  -11.7846   18.1030  -45.2365 O   0  0  0  0  0  0  0  0  0  0  0  0
  -11.7484   20.3275  -44.5912 N   0  0  0  0  0  0  0  0  0  0  0  0
  -11.8233   21.3009  -43.5134 C   0  0  0  0  0  0  0  0  0  0  0  0
  -12.1756   22.6627  -44.0827 C   0  0  0  0  0  0  0  0  0  0  0  0
  -13.2808   22.5395  -45.0212 N   0  0  0  0  0  0  0  0  0  0  0  0
  -14.4961   23.2726  -44.8382 C   0  0  0  0  0  0  0  0  0  0  0  0
  -14.5645   24.3257  -43.7935 C   0  0  0  0  0  0  0  0  0  0  0  0
  -15.4816   23.0198  -45.5556 O   0  0  0  0  0  0  0  0  0  0  0  0
  -13.1282   21.6633  -46.1407 C   0  0  0  0  0  0  0  0  0  0  0  0
  -11.9349   20.7844  -45.9548 C   0  0  0  0  0  0  0  0  0  0  0  0
  1  2  1  0
  2  3  1  0
  3  4  2  0
  4  5  1  0
  5  6  1  0
  5  7  2  0
  7  8  1  0
  8  9  1  0
  9 10  2  0
 10 11  1  0
 11 12  2  0
 12 13  1  0
 13 14  1  0
 14 15  2  0
 14 16  1  0
 16 17  2  0
 17 18  1  0
 18 19  2  0
 19 20  1  0
 20 21  1  0
 21 22  1  0
 22 23  1  0
 22 24  1  0
 24 25  1  0
 24 26  1  0
 24 27  1  0
 19 28  1  0
 28 29  2  0
 12 30  1  0
  7 31  1  0
 31 32  2  0
 32 33  1  0
 33 34  2  0
 33 35  1  0
 35 36  1  0
 36 37  1  0
 37 38  1  0
 38 39  1  0
 39 40  1  0
 39 41  2  0
 38 42  1  0
 42 43  1  0
 32  3  1  0
 43 35  1  0
 30  9  1  0
 29 16  1  0
M  END
$$$$
