
     RDKit          3D

 35 38  0  0  0  0  0  0  0  0999 V2000
  -22.6271   41.8859  -25.6148 C   0  0  0  0  0  0  0  0  0  0  0  0
  -22.6412   40.8768  -26.6230 N   0  0  0  0  0  0  0  0  0  0  0  0
  -22.1044   39.6074  -26.2515 C   0  0  1  0  0  0  0  0  0  0  0  0
  -22.0419   38.6256  -27.3890 C   0  0  0  0  0  0  0  0  0  0  0  0
  -20.7896   39.7250  -25.5792 C   0  0  0  0  0  0  0  0  0  0  0  0
  -20.0875   38.6960  -25.3074 O   0  0  0  0  0  0  0  0  0  0  0  0
  -20.2154   40.9599  -25.1901 N   0  0  0  0  0  0  0  0  0  0  0  0
  -18.9342   40.9790  -24.4111 C   0  0  2  0  0  0  0  0  0  0  0  0
  -19.2660   40.7166  -23.0085 C   0  0  0  0  0  0  0  0  0  0  0  0
  -20.4730   40.9701  -22.6489 O   0  0  0  0  0  0  0  0  0  0  0  0
  -18.3979   40.2023  -21.9951 N   0  0  0  0  0  0  0  0  0  0  0  0
  -16.9925   39.8897  -22.0519 C   0  0  0  0  0  0  0  0  0  0  0  0
  -16.8274   38.7066  -21.0886 C   0  0  0  0  0  0  0  0  0  0  0  0
  -18.2029   38.4732  -20.5134 C   0  0  0  0  0  0  0  0  0  0  0  0
  -18.7926   39.8598  -20.6395 C   0  0  1  0  0  0  0  0  0  0  0  0
  -18.1969   40.7377  -19.6061 C   0  0  0  0  0  0  0  0  0  0  0  0
  -18.5720   40.6686  -18.4150 O   0  0  0  0  0  0  0  0  0  0  0  0
  -17.1862   41.6875  -19.9082 N   0  0  0  0  0  0  0  0  0  0  0  0
  -17.3594   43.0401  -19.4985 C   0  0  0  0  0  0  0  0  0  0  0  0
  -18.7923   43.6945  -18.6755 S   0  0  0  0  0  0  0  0  0  0  0  0
  -18.0498   45.4203  -18.6122 N   0  0  0  0  0  0  0  0  0  0  0  0
  -17.0721   45.2467  -19.1086 N   0  0  0  0  0  0  0  0  0  0  0  0
  -16.5423   44.1369  -19.6184 C   0  0  0  0  0  0  0  0  0  0  0  0
  -15.2118   44.0468  -20.2676 C   0  0  0  0  0  0  0  0  0  0  0  0
  -14.5396   45.1991  -20.6441 C   0  0  0  0  0  0  0  0  0  0  0  0
  -13.2940   45.1639  -21.2409 C   0  0  0  0  0  0  0  0  0  0  0  0
  -12.6665   43.9534  -21.4861 C   0  0  0  0  0  0  0  0  0  0  0  0
  -13.3301   42.8050  -21.1137 C   0  0  0  0  0  0  0  0  0  0  0  0
  -14.5862   42.8466  -20.5120 C   0  0  0  0  0  0  0  0  0  0  0  0
  -18.4021   42.3768  -24.5621 C   0  0  0  0  0  0  0  0  0  0  0  0
  -19.4525   43.4348  -24.2840 C   0  0  0  0  0  0  0  0  0  0  0  0
  -20.3815   43.6581  -25.4614 C   0  0  0  0  0  0  0  0  0  0  0  0
  -19.5013   44.2348  -26.5813 C   0  0  0  0  0  0  0  0  0  0  0  0
  -18.5928   43.0543  -26.9762 C   0  0  0  0  0  0  0  0  0  0  0  0
  -17.6942   42.7377  -25.7978 C   0  0  0  0  0  0  0  0  0  0  0  0
  1  2  1  0
  2  3  1  0
  3  4  1  6
  3  5  1  0
  5  6  2  0
  5  7  1  0
  8  7  1  6
  8  9  1  0
  9 10  2  0
  9 11  1  0
 11 12  1  0
 12 13  1  0
 13 14  1  0
 14 15  1  0
 15 16  1  1
 16 17  2  0
 16 18  1  0
 18 19  1  0
 19 20  1  0
 20 21  1  0
 21 22  2  0
 22 23  1  0
 23 24  1  0
 24 25  2  0
 25 26  1  0
 26 27  2  0
 27 28  1  0
 28 29  2  0
  8 30  1  0
 30 31  1  0
 31 32  1  0
 32 33  1  0
 33 34  1  0
 34 35  1  0
 15 11  1  0
 23 19  2  0
 29 24  1  0
 35 30  1  0
M  END
$$$$
