
     RDKit          3D

 27 28  0  0  0  0  0  0  0  0999 V2000
  -16.1985   33.2653  -21.5941 C   0  0  0  0  0  0  0  0  0  0  0  0
  -17.5073   34.0120  -21.6881 C   0  0  0  0  0  0  0  0  0  0  0  0
  -17.7307   34.8317  -20.7533 O   0  0  0  0  0  0  0  0  0  0  0  0
  -18.3700   33.7967  -22.7250 O   0  0  0  0  0  0  0  0  0  0  0  0
  -19.5966   34.5077  -22.7984 C   0  0  0  0  0  0  0  0  0  0  0  0
  -19.3372   35.9838  -22.8811 C   0  0  0  0  0  0  0  0  0  0  0  0
  -19.7876   36.8265  -21.9709 C   0  0  0  0  0  0  0  0  0  0  0  0
  -20.5680   36.4163  -20.7988 C   0  0  0  0  0  0  0  0  0  0  0  0
  -20.9024   35.2465  -20.5146 O   0  0  0  0  0  0  0  0  0  0  0  0
  -21.0030   37.3898  -19.8762 O   0  0  0  0  0  1  0  0  0  0  0  0
  -19.5480   38.2454  -22.0792 N   0  0  0  0  0  0  0  0  0  0  0  0
  -19.2232   39.4287  -21.4057 C   0  0  0  0  0  0  0  0  0  0  0  0
  -18.9670   39.8132  -20.2441 O   0  0  0  0  0  0  0  0  0  0  0  0
  -19.2948   40.1619  -22.7000 C   0  0  1  0  0  0  0  0  0  0  0  0
  -18.0693   40.8515  -23.0432 N   0  0  0  0  0  0  0  0  0  0  0  0
  -18.0598   42.2573  -22.8936 C   0  0  0  0  0  0  0  0  0  0  0  0
  -19.1031   42.8467  -22.4737 O   0  0  0  0  0  0  0  0  0  0  0  0
  -16.8983   43.1365  -23.1918 C   0  0  0  0  0  0  0  0  0  0  0  0
  -16.4239   43.6519  -21.8719 C   0  0  0  0  0  0  0  0  0  0  0  0
  -15.3820   43.2654  -21.1141 C   0  0  0  0  0  0  0  0  0  0  0  0
  -15.1406   43.8455  -19.9365 C   0  0  0  0  0  0  0  0  0  0  0  0
  -16.0269   44.8656  -19.5463 C   0  0  0  0  0  0  0  0  0  0  0  0
  -17.1620   44.9047  -20.9432 S   0  0  0  0  0  0  0  0  0  0  0  0
  -19.6325   38.9005  -23.3636 C   0  0  1  0  0  0  0  0  0  0  0  0
  -18.3805   38.0960  -24.3765 S   0  0  0  0  0  0  0  0  0  0  0  0
  -18.5000   36.3403  -24.0707 C   0  0  0  0  0  0  0  0  0  0  0  0
  -17.9474   38.7859  -22.1389 Na  0  0  0  0  0 15  0  0  0  0  0  0
  1  2  1  0
  2  3  2  0
  2  4  1  0
  4  5  1  0
  5  6  1  0
  6  7  2  0
  7  8  1  0
  8  9  2  0
  8 10  1  0
  7 11  1  0
 11 12  1  0
 12 13  2  0
 12 14  1  0
 14 15  1  6
 15 16  1  0
 16 17  2  0
 16 18  1  0
 18 19  1  0
 19 20  2  0
 20 21  1  0
 21 22  2  0
 22 23  1  0
 14 24  1  0
 24 25  1  6
 25 26  1  0
 26  6  1  0
 24 11  1  0
 23 19  1  0
M  CHG  2  10  -1  27   1
M  END
$$$$
