
     RDKit          3D

 24 26  0  0  0  0  0  0  0  0999 V2000
  -17.0240   34.4217  -20.5173 C   0  0  0  0  0  0  0  0  0  0  0  0
  -18.0777   35.0792  -21.3192 C   0  0  0  0  0  0  0  0  0  0  0  0
  -17.8068   36.3281  -21.8321 C   0  0  0  0  0  0  0  0  0  0  0  0
  -18.7343   37.0041  -22.5962 C   0  0  0  0  0  0  0  0  0  0  0  0
  -18.4026   38.2855  -23.0838 N   0  0  0  0  0  0  0  0  0  0  0  0
  -17.6633   39.2741  -22.3587 C   0  0  0  0  0  0  0  0  0  0  0  0
  -17.6831   39.1648  -21.1236 O   0  0  0  0  0  0  0  0  0  0  0  0
  -16.9322   40.3629  -23.0911 C   0  0  0  0  0  0  0  0  0  0  0  0
  -17.2911   41.6917  -22.5567 C   0  0  0  0  0  0  0  0  0  0  0  0
  -18.5521   42.1898  -22.7211 N   0  0  0  0  0  0  0  0  0  0  0  0
  -18.9381   43.3328  -22.2082 N   0  0  0  0  0  0  0  0  0  0  0  0
  -20.2952   43.7686  -22.4331 C   0  0  0  0  0  0  0  0  0  0  0  0
  -18.1181   44.0965  -21.4841 C   0  0  0  0  0  0  0  0  0  0  0  0
  -18.4976   45.1873  -20.9985 O   0  0  0  0  0  0  0  0  0  0  0  0
  -16.8165   43.6720  -21.2648 C   0  0  0  0  0  0  0  0  0  0  0  0
  -15.9913   44.4680  -20.5272 C   0  0  0  0  0  0  0  0  0  0  0  0
  -14.6954   44.0698  -20.3037 C   0  0  0  0  0  0  0  0  0  0  0  0
  -14.2910   42.8693  -20.8474 C   0  0  0  0  0  0  0  0  0  0  0  0
  -15.1361   42.0727  -21.5927 C   0  0  0  0  0  0  0  0  0  0  0  0
  -16.4425   42.4630  -21.8197 C   0  0  0  0  0  0  0  0  0  0  0  0
  -19.9535   36.4261  -22.8518 C   0  0  0  0  0  0  0  0  0  0  0  0
  -20.2087   35.1840  -22.3335 C   0  0  0  0  0  0  0  0  0  0  0  0
  -19.3005   34.4780  -21.5652 C   0  0  0  0  0  0  0  0  0  0  0  0
  -19.6369   32.7709  -20.8503 Br  0  0  0  0  0  0  0  0  0  0  0  0
  1  2  1  0
  2  3  2  0
  3  4  1  0
  4  5  1  0
  5  6  1  0
  6  7  2  0
  6  8  1  0
  8  9  1  0
  9 10  2  0
 10 11  1  0
 11 12  1  0
 11 13  1  0
 13 14  2  0
 13 15  1  0
 15 16  2  0
 16 17  1  0
 17 18  2  0
 18 19  1  0
 19 20  2  0
  4 21  2  0
 21 22  1  0
 22 23  2  0
 23 24  1  0
 23  2  1  0
 20  9  1  0
 20 15  1  0
M  END
$$$$
