
     RDKit          3D

 17 19  0  0  0  0  0  0  0  0999 V2000
  -18.5166   38.5558  -19.0740 O   0  0  0  0  0  0  0  0  0  0  0  0
  -18.2586   39.4187  -19.9502 C   0  0  0  0  0  0  0  0  0  0  0  0
  -17.5383   40.4985  -19.6658 N   0  0  0  0  0  0  0  0  0  0  0  0
  -17.2626   41.4312  -20.6243 C   0  0  0  0  0  0  0  0  0  0  0  0
  -16.3735   42.7119  -20.1505 S   0  0  0  0  0  0  0  0  0  0  0  0
  -17.7054   41.2937  -21.8809 N   0  0  0  0  0  0  0  0  0  0  0  0
  -17.4151   42.2718  -22.8954 C   0  0  0  0  0  0  0  0  0  0  0  0
  -18.2664   43.5174  -22.7531 C   0  0  1  0  0  0  0  0  0  0  0  0
  -17.7062   44.6435  -23.5824 C   0  0  0  0  0  0  0  0  0  0  0  0
  -18.8572   45.0891  -24.4763 C   0  0  0  0  0  0  0  0  0  0  0  0
  -19.7207   43.8558  -24.4430 C   0  0  0  0  0  0  0  0  0  0  0  0
  -19.5303   43.2551  -23.2293 O   0  0  0  0  0  0  0  0  0  0  0  0
  -18.4351   40.2115  -22.1927 C   0  0  0  0  0  0  0  0  0  0  0  0
  -19.0175   39.7762  -23.3220 N   0  0  0  0  0  0  0  0  0  0  0  0
  -19.6494   38.6053  -23.1117 C   0  0  0  0  0  0  0  0  0  0  0  0
  -19.4728   38.2765  -21.8224 N   0  0  0  0  0  0  0  0  0  0  0  0
  -18.7345   39.2384  -21.2336 C   0  0  0  0  0  0  0  0  0  0  0  0
  1  2  2  0
  2  3  1  0
  3  4  1  0
  4  5  2  0
  4  6  1  0
  6  7  1  0
  8  7  1  6
  8  9  1  0
  9 10  1  0
 10 11  1  0
 11 12  1  0
  6 13  1  0
 13 14  1  0
 14 15  1  0
 15 16  2  0
 16 17  1  0
 17  2  1  0
 12  8  1  0
 17 13  2  0
M  END
$$$$
