
     RDKit          3D

 42 46  0  0  0  0  0  0  0  0999 V2000
  -16.4740   13.1623  -27.6000 C   0  0  0  0  0  0  0  0  0  0  0  0
  -17.0973   13.3307  -28.9755 C   0  0  0  0  0  0  0  0  0  0  0  0
  -16.6049   14.6297  -29.5899 C   0  0  0  0  0  0  0  0  0  0  0  0
  -17.2012   14.6877  -30.9869 C   0  0  0  0  0  0  0  0  0  0  0  0
  -16.8661   15.9489  -31.6688 C   0  0  0  0  0  0  0  0  0  0  0  0
  -16.6627   17.0461  -30.9961 N   0  0  0  0  0  0  0  0  0  0  0  0
  -16.3529   18.1523  -31.8356 C   0  0  0  0  0  0  0  0  0  0  0  0
  -17.3665   19.2777  -31.7769 C   0  0  0  0  0  0  0  0  0  0  0  0
  -16.8315   20.3271  -30.8564 C   0  0  0  0  0  0  0  0  0  0  0  0
  -15.3883   20.0195  -30.6597 C   0  0  0  0  0  0  0  0  0  0  0  0
  -15.0338   18.8130  -31.4866 C   0  0  0  0  0  0  0  0  0  0  0  0
  -16.3100   17.5527  -33.1842 C   0  0  0  0  0  0  0  0  0  0  0  0
  -16.0217   18.0859  -34.2792 O   0  0  0  0  0  0  0  0  0  0  0  0
  -16.6728   16.1667  -33.0470 N   0  0  0  0  0  0  0  0  0  0  0  0
  -16.8000   15.2382  -34.1377 C   0  0  0  0  0  0  0  0  0  0  0  0
  -18.1235   15.4108  -34.8397 C   0  0  0  0  0  0  0  0  0  0  0  0
  -18.2014   16.3198  -35.8755 C   0  0  0  0  0  0  0  0  0  0  0  0
  -19.3916   16.5055  -36.5436 C   0  0  0  0  0  0  0  0  0  0  0  0
  -20.5506   15.7970  -36.2110 C   0  0  0  0  0  0  0  0  0  0  0  0
  -21.7252   16.0458  -37.0118 C   0  0  0  0  0  0  0  0  0  0  0  0
  -22.3637   15.0499  -37.7413 C   0  0  0  0  0  0  0  0  0  0  0  0
  -23.5033   15.3477  -38.4566 C   0  0  0  0  0  0  0  0  0  0  0  0
  -24.0526   16.6103  -38.4845 C   0  0  0  0  0  0  0  0  0  0  0  0
  -23.4012   17.5773  -37.7525 C   0  0  0  0  0  0  0  0  0  0  0  0
  -22.2669   17.3218  -37.0277 C   0  0  0  0  0  0  0  0  0  0  0  0
  -21.5216   18.5819  -36.0892 S   0  0  0  0  0  6  0  0  0  0  0  0
  -20.0424   18.6126  -36.1431 O   0  0  0  0  0  0  0  0  0  0  0  0
  -21.9202   18.4933  -34.6365 O   0  0  0  0  0  0  0  0  0  0  0  0
  -22.1902   20.1029  -36.6446 N   0  0  0  0  0  0  0  0  0  0  0  0
  -22.0670   20.5049  -37.9920 C   0  0  0  0  0  0  0  0  0  0  0  0
  -21.4773   19.8868  -39.0372 N   0  0  0  0  0  0  0  0  0  0  0  0
  -21.6029   20.6258  -40.1018 O   0  0  0  0  0  0  0  0  0  0  0  0
  -22.2504   21.7196  -39.8335 C   0  0  0  0  0  0  0  0  0  0  0  0
  -22.5958   22.8216  -40.7882 C   0  0  0  0  0  0  0  0  0  0  0  0
  -22.5609   21.6784  -38.5060 C   0  0  0  0  0  0  0  0  0  0  0  0
  -23.3050   22.7212  -37.7320 C   0  0  0  0  0  0  0  0  0  0  0  0
  -20.4800   14.9053  -35.1952 C   0  0  0  0  0  0  0  0  0  0  0  0
  -21.5942   14.0888  -34.6441 C   0  0  0  0  0  0  0  0  0  0  0  0
  -21.3612   13.3260  -33.5865 O   0  0  0  0  0  0  0  0  0  0  0  0
  -22.0615   12.3084  -33.1151 C   0  0  0  0  0  0  0  0  0  0  0  0
  -21.4847   11.7159  -31.8206 C   0  0  0  0  0  0  0  0  0  0  0  0
  -19.2442   14.7186  -34.5097 C   0  0  0  0  0  0  0  0  0  0  0  0
  1  2  1  0
  2  3  1  0
  3  4  1  0
  4  5  1  0
  5  6  2  0
  6  7  1  0
  7  8  1  0
  8  9  1  0
  9 10  1  0
 10 11  1  0
  7 12  1  0
 12 13  2  0
 12 14  1  0
 14 15  1  0
 15 16  1  0
 16 17  2  0
 17 18  1  0
 18 19  2  0
 19 20  1  0
 20 21  2  0
 21 22  1  0
 22 23  2  0
 23 24  1  0
 24 25  2  0
 25 26  1  0
 26 27  2  0
 26 28  2  0
 26 29  1  0
 29 30  1  0
 30 31  2  0
 31 32  1  0
 32 33  1  0
 33 34  1  0
 33 35  2  0
 35 36  1  0
 19 37  1  0
 37 38  1  0
 38 39  1  0
 39 40  1  0
 40 41  1  0
 37 42  2  0
 14  5  1  0
 42 16  1  0
 11  7  1  0
 25 20  1  0
 35 30  1  0
M  END
$$$$
