
     RDKit          3D

 11  9  0  0  0  0  0  0  0  0999 V2000
  -19.3042   37.3709  -24.0480 C   0  0  0  0  0  0  0  0  0  0  0  0
  -18.4561   37.4682  -22.8320 C   0  0  0  0  0  0  0  0  0  0  0  0
  -18.0275   38.5764  -22.2034 N   0  0  0  0  0  0  0  0  0  0  0  0
  -17.2749   38.2584  -21.1440 C   0  0  0  0  0  0  0  0  0  0  0  0
  -17.2359   36.9244  -21.1141 N   0  0  0  0  0  0  0  0  0  0  0  0
  -17.9492   36.3955  -22.1345 C   0  0  0  0  0  0  0  0  0  0  0  0
  -18.1040   34.9390  -22.3638 C   0  0  0  0  0  0  0  0  0  0  0  0
  -19.4745   34.4709  -21.8646 C   0  0  0  0  0  0  0  0  0  0  0  0
  -19.6627   33.0651  -22.0696 N   0  0  0  0  0  0  0  0  0  0  0  0
  -18.7090   35.4589  -22.1502 Cl  0  0  0  0  0  0  0  0  0  0  0  0
  -18.7092   35.4582  -22.1499 Cl  0  0  0  0  0  0  0  0  0  0  0  0
  1  2  1  0
  2  3  1  0
  3  4  1  0
  4  5  2  0
  5  6  1  0
  6  7  1  0
  7  8  1  0
  8  9  1  0
  6  2  2  0
M  END
$$$$
