
     RDKit          3D

 15 16  0  0  0  0  0  0  0  0999 V2000
  -13.5164   44.1763  -21.7004 C   0  0  0  0  0  0  0  0  0  0  0  0
  -14.8107   43.6736  -21.1738 C   0  0  0  0  0  0  0  0  0  0  0  0
  -15.5903   44.4586  -20.3177 C   0  0  0  0  0  0  0  0  0  0  0  0
  -16.7837   43.9421  -19.8585 C   0  0  0  0  0  0  0  0  0  0  0  0
  -17.1809   42.6810  -20.2453 C   0  0  0  0  0  0  0  0  0  0  0  0
  -16.4291   41.8775  -21.0939 C   0  0  0  0  0  0  0  0  0  0  0  0
  -16.8643   40.5540  -21.4888 C   0  0  0  0  0  0  0  0  0  0  0  0
  -16.1145   39.8999  -22.2844 O   0  0  0  0  0  0  0  0  0  0  0  0
  -18.0505   39.9347  -21.0622 N   0  0  0  0  0  0  0  0  0  0  0  0
  -18.3481   38.6066  -21.4723 C   0  0  0  0  0  0  0  0  0  0  0  0
  -19.3188   37.8707  -21.1435 N   0  0  0  0  0  0  0  0  0  0  0  0
  -19.4419   36.5781  -21.6561 C   0  0  0  0  0  0  0  0  0  0  0  0
  -18.6901   36.4141  -22.9611 C   0  0  0  0  0  0  0  0  0  0  0  0
  -17.3597   37.6492  -22.6156 S   0  0  0  0  0  0  0  0  0  0  0  0
  -15.2394   42.4117  -21.5421 C   0  0  0  0  0  0  0  0  0  0  0  0
  1  2  1  0
  2  3  2  0
  3  4  1  0
  4  5  2  0
  5  6  1  0
  6  7  1  0
  7  8  2  0
  7  9  1  0
  9 10  1  0
 10 11  2  0
 11 12  1  0
 12 13  1  0
 13 14  1  0
  6 15  2  0
 15  2  1  0
 14 10  1  0
M  END
$$$$
