
     RDKit          3D

 33 38  0  0  0  0  0  0  0  0999 V2000
  -24.0549   20.2347  -36.5155 C   0  0  0  0  0  0  0  0  0  0  0  0
  -22.8010   20.2692  -35.8121 N   0  0  0  0  0  0  0  0  0  0  0  0
  -21.7792   19.4959  -36.4576 C   0  0  0  0  0  0  0  0  0  0  0  0
  -20.4124   20.0927  -36.3409 C   0  0  0  0  0  0  0  0  0  0  0  0
  -20.2116   20.6255  -35.0153 N   0  0  0  0  0  0  0  0  0  0  0  0
  -19.0449   20.2237  -34.3033 C   0  0  0  0  0  0  0  0  0  0  0  0
  -18.2186   19.2884  -34.7946 N   0  0  0  0  0  0  0  0  0  0  0  0
  -17.0821   18.8668  -34.1612 C   0  0  0  0  0  0  0  0  0  0  0  0
  -16.2531   17.8372  -34.7426 C   0  0  0  0  0  0  0  0  0  0  0  0
  -16.5035   16.5437  -34.7386 C   0  0  0  0  0  0  0  0  0  0  0  0
  -17.6460   15.8606  -34.1550 C   0  0  0  0  0  0  0  0  0  0  0  0
  -17.9113   15.6900  -32.7900 C   0  0  0  0  0  0  0  0  0  0  0  0
  -19.0733   15.0293  -32.6689 N   0  0  0  0  0  0  0  0  0  0  0  0
  -19.5993   14.7498  -33.8709 C   0  0  0  0  0  0  0  0  0  0  0  0
  -20.7250   14.1291  -34.3514 C   0  0  0  0  0  0  0  0  0  0  0  0
  -20.9993   14.0055  -35.6934 C   0  0  0  0  0  0  0  0  0  0  0  0
  -20.1243   14.5166  -36.6082 C   0  0  0  0  0  0  0  0  0  0  0  0
  -18.9827   15.1467  -36.1610 C   0  0  0  0  0  0  0  0  0  0  0  0
  -18.7046   15.2712  -34.8028 C   0  0  0  0  0  0  0  0  0  0  0  0
  -15.3903   15.8651  -35.4251 C   0  0  0  0  0  0  0  0  0  0  0  0
  -15.2239   14.6431  -35.6409 O   0  0  0  0  0  0  0  0  0  0  0  0
  -14.4252   16.8524  -35.8592 N   0  0  0  0  0  0  0  0  0  0  0  0
  -14.9831   18.0903  -35.4219 C   0  0  0  0  0  0  0  0  0  0  0  0
  -14.4754   19.2438  -35.5847 O   0  0  0  0  0  0  0  0  0  0  0  0
  -16.7411   19.4163  -32.9437 C   0  0  0  0  0  0  0  0  0  0  0  0
  -15.6127   19.0109  -32.2457 C   0  0  0  0  0  0  0  0  0  0  0  0
  -15.3566   19.6011  -31.0296 C   0  0  0  0  0  0  0  0  0  0  0  0
  -16.1764   20.5716  -30.4867 C   0  0  0  0  0  0  0  0  0  0  0  0
  -17.2864   20.9353  -31.2210 C   0  0  0  0  0  0  0  0  0  0  0  0
  -17.5986   20.3803  -32.4460 C   0  0  0  0  0  0  0  0  0  0  0  0
  -18.7143   20.7616  -33.1198 N   0  0  0  0  0  0  0  0  0  0  0  0
  -21.2131   21.5169  -34.4861 C   0  0  0  0  0  0  0  0  0  0  0  0
  -22.3614   21.5956  -35.4466 C   0  0  0  0  0  0  0  0  0  0  0  0
  1  2  1  0
  2  3  1  0
  3  4  1  0
  4  5  1  0
  5  6  1  0
  6  7  2  0
  7  8  1  0
  8  9  1  0
  9 10  2  0
 10 11  1  0
 11 12  2  0
 12 13  1  0
 13 14  1  0
 14 15  2  0
 15 16  1  0
 16 17  2  0
 17 18  1  0
 18 19  2  0
 10 20  1  0
 20 21  2  0
 20 22  1  0
 22 23  1  0
 23 24  2  0
  8 25  2  0
 25 26  1  0
 26 27  2  0
 27 28  1  0
 28 29  2  0
 29 30  1  0
 30 31  2  0
  5 32  1  0
 32 33  1  0
 33  2  1  0
 31  6  1  0
 23  9  1  0
 30 25  1  0
 19 11  1  0
 19 14  1  0
M  END
$$$$
