
     RDKit          3D

 44 46  0  0  0  0  0  0  0  0999 V2000
  -24.6149   17.6211  -29.7071 Cl  0  0  0  0  0  0  0  0  0  0  0  0
  -13.9765   13.5391  -33.5659 N   0  0  0  0  0  0  0  0  0  0  0  0
  -14.6666   14.6865  -32.9935 C   0  0  0  0  0  0  0  0  0  0  0  0
  -16.0722   14.7775  -33.5516 C   0  0  0  0  0  0  0  0  0  0  0  0
  -16.7569   15.8521  -33.0255 O   0  0  0  0  0  0  0  0  0  0  0  0
  -16.2115   17.0855  -33.2647 C   0  0  0  0  0  0  0  0  0  0  0  0
  -17.1445   18.1057  -32.5838 C   0  0  0  0  0  0  0  0  0  0  0  0
  -17.2039   17.8466  -31.2301 O   0  0  0  0  0  0  0  0  0  0  0  0
  -18.0161   18.7468  -30.5615 C   0  0  0  0  0  0  0  0  0  0  0  0
  -19.4286   18.7155  -31.0349 C   0  0  0  0  0  0  0  0  0  0  0  0
  -19.9728   17.3869  -30.8345 N   0  0  0  0  0  0  0  0  0  0  0  0
  -21.2981   17.0801  -31.1707 C   0  0  0  0  0  0  0  0  0  0  0  0
  -22.0235   17.9840  -31.6512 O   0  0  0  0  0  0  0  0  0  0  0  0
  -21.8894   15.7235  -30.9840 C   0  0  0  0  0  0  0  0  0  0  0  0
  -23.0097   15.8591  -29.9874 C   0  0  0  0  0  0  0  0  0  0  0  0
  -22.8527   15.5133  -28.6741 C   0  0  0  0  0  0  0  0  0  0  0  0
  -23.8990   15.6717  -27.7675 C   0  0  0  0  0  0  0  0  0  0  0  0
  -25.1206   16.1841  -28.1848 C   0  0  0  0  0  0  0  0  0  0  0  0
  -26.2039   16.3373  -27.3020 N   0  0  0  0  0  0  0  0  0  0  0  0
  -27.2137   17.3407  -27.4158 C   0  0  0  0  0  0  0  0  0  0  0  0
  -27.0846   18.3311  -28.3101 N   0  0  0  0  0  0  0  0  0  0  0  0
  -28.0199   19.3256  -28.4629 C   0  0  0  0  0  0  0  0  0  0  0  0
  -27.7694   20.3295  -29.4114 N   0  0  0  0  0  0  0  0  0  0  0  0
  -28.7203   21.3682  -29.6886 C   0  0  0  0  0  0  0  0  0  0  0  0
  -29.1598   22.0430  -28.4495 C   0  0  0  0  0  0  0  0  0  0  0  0
  -28.3843   23.0145  -27.8539 C   0  0  0  0  0  0  0  0  0  0  0  0
  -28.7783   23.6705  -26.7010 C   0  0  0  0  0  0  0  0  0  0  0  0
  -29.9859   23.3576  -26.1105 C   0  0  0  0  0  0  0  0  0  0  0  0
  -30.3793   23.9864  -24.9874 F   0  0  0  0  0  0  0  0  0  0  0  0
  -30.7898   22.3950  -26.6731 C   0  0  0  0  0  0  0  0  0  0  0  0
  -30.3687   21.7688  -27.8103 C   0  0  0  0  0  0  0  0  0  0  0  0
  -29.0787   19.2425  -27.6557 N   0  0  0  0  0  0  0  0  0  0  0  0
  -29.2881   18.2873  -26.7342 C   0  0  0  0  0  0  0  0  0  0  0  0
  -30.4248   18.2364  -25.8973 N   0  0  0  0  0  0  0  0  0  0  0  0
  -31.4823   17.3080  -26.0875 C   0  0  0  0  0  0  0  0  0  0  0  0
  -32.2934   17.4188  -27.3473 C   0  0  0  0  0  0  0  0  0  0  0  0
  -33.3382   16.3427  -27.2897 C   0  0  0  0  0  0  0  0  0  0  0  0
  -34.0329   15.9723  -28.5301 C   0  0  0  0  0  0  0  0  0  0  0  0
  -33.6592   16.9293  -29.6353 C   0  0  0  0  0  0  0  0  0  0  0  0
  -32.1344   16.7612  -29.7593 C   0  0  0  0  0  0  0  0  0  0  0  0
  -31.5160   17.4975  -28.5889 C   0  0  0  0  0  0  0  0  0  0  0  0
  -28.3073   17.3349  -26.6474 N   0  0  0  0  0  0  0  0  0  0  0  0
  -25.2432   16.5182  -29.5021 C   0  0  0  0  0  0  0  0  0  0  0  0
  -24.1955   16.3626  -30.4238 C   0  0  0  0  0  0  0  0  0  0  0  0
  2  3  1  0
  3  4  1  0
  4  5  1  0
  5  6  1  0
  6  7  1  0
  7  8  1  0
  8  9  1  0
  9 10  1  0
 10 11  1  0
 11 12  1  0
 12 13  2  0
 12 14  1  0
 14 15  1  0
 15 16  2  0
 16 17  1  0
 17 18  2  0
 18 19  1  0
 19 20  1  0
 20 21  2  0
 21 22  1  0
 22 23  1  0
 23 24  1  0
 24 25  1  0
 25 26  2  0
 26 27  1  0
 27 28  2  0
 28 29  1  0
 28 30  1  0
 30 31  2  0
 22 32  2  0
 32 33  1  0
 33 34  1  0
 34 35  1  0
 35 36  1  0
 36 37  1  0
 37 38  1  0
 38 39  1  0
 39 40  1  0
 40 41  1  0
 33 42  2  0
 18 43  1  0
 43 44  2  0
 44 15  1  0
 42 20  1  0
 31 25  1  0
 41 36  1  0
M  END
$$$$
