
     RDKit          3D

 29 31  0  0  0  0  0  0  0  0999 V2000
  -11.7152   -4.8251  -24.4508 C   0  0  0  0  0  0  0  0  0  0  0  0
  -12.8435   -4.5575  -25.2505 O   0  0  0  0  0  0  0  0  0  0  0  0
  -13.8468   -3.7184  -24.8023 C   0  0  0  0  0  0  0  0  0  0  0  0
  -13.6606   -2.9977  -23.6516 C   0  0  0  0  0  0  0  0  0  0  0  0
  -14.6654   -2.1579  -23.2035 C   0  0  0  0  0  0  0  0  0  0  0  0
  -15.8330   -2.0594  -23.9179 C   0  0  0  0  0  0  0  0  0  0  0  0
  -16.0408   -2.7716  -25.0726 C   0  0  0  0  0  0  0  0  0  0  0  0
  -15.0305   -3.6149  -25.5214 C   0  0  0  0  0  0  0  0  0  0  0  0
  -15.2039   -4.3275  -26.6499 C   0  0  0  0  0  0  0  0  0  0  0  0
  -14.1636   -5.1588  -27.0588 O   0  0  0  0  0  0  0  0  0  0  0  0
  -16.3964   -4.2290  -27.3818 C   0  0  0  0  0  0  0  0  0  0  0  0
  -16.4712   -4.9891  -28.6109 C   0  0  0  0  0  0  0  0  0  0  0  0
  -16.6001   -6.3050  -28.4627 O   0  0  0  0  0  0  0  0  0  0  0  0
  -16.4391   -4.6293  -29.9457 N   0  0  0  0  0  0  0  0  0  0  0  0
  -16.7556   -5.4646  -31.0539 C   0  0  0  0  0  0  0  0  0  0  0  0
  -15.9654   -3.3027  -30.2920 C   0  0  0  0  0  0  0  0  0  0  0  0
  -16.8767   -2.3053  -30.5064 C   0  0  0  0  0  0  0  0  0  0  0  0
  -16.4612   -1.0234  -30.8395 C   0  0  0  0  0  0  0  0  0  0  0  0
  -15.1080   -0.7432  -30.9581 C   0  0  0  0  0  0  0  0  0  0  0  0
  -14.7372    0.6524  -31.3178 C   0  0  0  0  0  0  0  0  0  0  0  0
  -15.5848    1.5776  -30.7752 F   0  0  0  0  0  0  0  0  0  0  0  0
  -14.7648    0.7504  -32.6899 F   0  0  0  0  0  0  0  0  0  0  0  0
  -13.4502    0.8551  -30.8516 F   0  0  0  0  0  0  0  0  0  0  0  0
  -14.1942   -1.7375  -30.7446 C   0  0  0  0  0  0  0  0  0  0  0  0
  -14.6297   -3.0280  -30.4087 C   0  0  0  0  0  0  0  0  0  0  0  0
  -17.3255   -3.3865  -26.8791 C   0  0  0  0  0  0  0  0  0  0  0  0
  -18.4131   -3.2264  -27.4650 O   0  0  0  0  0  0  0  0  0  0  0  0
  -17.1900   -2.6490  -25.7413 N   0  0  0  0  0  0  0  0  0  0  0  0
  -18.2657   -1.7913  -25.3209 C   0  0  0  0  0  0  0  0  0  0  0  0
  1  2  1  0
  2  3  1  0
  3  4  2  0
  4  5  1  0
  5  6  2  0
  6  7  1  0
  7  8  2  0
  8  9  1  0
  9 10  1  0
  9 11  2  0
 11 12  1  0
 12 13  2  0
 12 14  1  0
 14 15  1  0
 14 16  1  0
 16 17  2  0
 17 18  1  0
 18 19  2  0
 19 20  1  0
 20 21  1  0
 20 22  1  0
 20 23  1  0
 19 24  1  0
 24 25  2  0
 11 26  1  0
 26 27  2  0
 26 28  1  0
 28 29  1  0
  8  3  1  0
 25 16  1  0
 28  7  1  0
M  END
$$$$
