
     RDKit          3D

 26 29  0  0  0  0  0  0  0  0999 V2000
  -18.9890   34.6376  -24.1198 C   0  0  0  0  0  0  0  0  0  0  0  0
  -18.4843   34.0724  -22.9068 N   0  0  0  0  0  0  0  0  0  0  0  0
  -19.5598   33.7438  -21.9902 C   0  0  0  0  0  0  0  0  0  0  0  0
  -17.4099   35.1194  -22.0472 S   0  0  0  0  0  6  0  0  0  0  0  0
  -16.1469   35.3506  -22.8233 O   0  0  0  0  0  0  0  0  0  0  0  0
  -17.1112   34.4794  -20.7292 O   0  0  0  0  0  0  0  0  0  0  0  0
  -18.1931   36.6651  -21.7605 C   0  0  0  0  0  0  0  0  0  0  0  0
  -19.5729   36.7396  -21.6925 C   0  0  0  0  0  0  0  0  0  0  0  0
  -20.2249   37.9302  -21.4657 C   0  0  0  0  0  0  0  0  0  0  0  0
  -19.5121   39.1227  -21.2934 C   0  0  0  0  0  0  0  0  0  0  0  0
  -18.1442   39.0518  -21.3603 C   0  0  0  0  0  0  0  0  0  0  0  0
  -17.4902   37.8392  -21.5910 C   0  0  0  0  0  0  0  0  0  0  0  0
  -17.6483   40.4270  -21.1462 C   0  0  0  0  0  0  0  0  0  0  0  0
  -16.3836   40.7449  -21.1752 C   0  0  0  0  0  0  0  0  0  0  0  0
  -15.9511   42.1080  -20.9090 C   0  0  0  0  0  0  0  0  0  0  0  0
  -16.4857   43.1927  -21.5996 C   0  0  0  0  0  0  0  0  0  0  0  0
  -15.8301   44.3111  -21.1361 C   0  0  0  0  0  0  0  0  0  0  0  0
  -14.9345   43.8689  -20.1948 C   0  0  0  0  0  0  0  0  0  0  0  0
  -15.0081   42.5063  -20.0546 N   0  0  0  0  0  0  0  0  0  0  0  0
  -14.0549   44.8292  -19.4776 C   0  0  0  0  0  0  0  0  0  0  0  0
  -13.9241   46.1510  -20.1253 C   0  0  0  0  0  0  0  0  0  0  0  0
  -14.4441   46.2084  -21.5197 C   0  0  0  0  0  0  0  0  0  0  0  0
  -15.9184   45.7727  -21.4571 C   0  0  0  0  0  0  0  0  0  0  0  0
  -18.7920   41.3022  -20.9530 C   0  0  0  0  0  0  0  0  0  0  0  0
  -18.8110   42.5462  -20.7444 O   0  0  0  0  0  0  0  0  0  0  0  0
  -19.9431   40.4548  -21.0504 N   0  0  0  0  0  0  0  0  0  0  0  0
  1  2  1  0
  2  3  1  0
  2  4  1  0
  4  5  2  0
  4  6  2  0
  4  7  1  0
  7  8  2  0
  8  9  1  0
  9 10  2  0
 10 11  1  0
 11 12  2  0
 11 13  1  0
 13 14  2  0
 14 15  1  0
 15 16  2  0
 16 17  1  0
 17 18  2  0
 18 19  1  0
 18 20  1  0
 20 21  1  0
 21 22  1  0
 22 23  1  0
 13 24  1  0
 24 25  2  0
 24 26  1  0
 12  7  1  0
 19 15  1  0
 26 10  1  0
 23 17  1  0
M  END
$$$$
