
     RDKit          3D

 27 32  0  0  0  0  0  0  0  0999 V2000
  -21.6629   39.0632  -23.9167 C   0  0  0  0  0  0  0  0  0  0  0  0
  -20.6292   38.1928  -24.4342 N   0  0  0  0  0  0  0  0  0  0  0  0
  -20.5018   38.2695  -25.8644 C   0  0  0  0  0  0  0  0  0  0  0  0
  -19.4289   39.1685  -26.3740 C   0  0  0  0  0  0  0  0  0  0  0  0
  -19.0498   40.2114  -25.3868 C   0  0  0  0  0  0  0  0  0  0  0  0
  -18.7455   41.5096  -25.7267 C   0  0  0  0  0  0  0  0  0  0  0  0
  -18.4019   42.4489  -24.7637 C   0  0  0  0  0  0  0  0  0  0  0  0
  -18.3717   42.0493  -23.4451 C   0  0  0  0  0  0  0  0  0  0  0  0
  -18.6781   40.7320  -23.0769 C   0  0  0  0  0  0  0  0  0  0  0  0
  -19.0121   39.8280  -24.0383 C   0  0  0  0  0  0  0  0  0  0  0  0
  -19.3517   38.4265  -23.7847 C   0  0  1  0  0  0  0  0  0  0  0  0
  -19.3006   37.9651  -22.3844 C   0  0  2  0  0  0  0  0  0  0  0  0
  -18.0107   38.1490  -21.8627 O   0  0  0  0  0  0  0  0  0  0  0  0
  -17.3772   36.9827  -21.5536 C   0  0  0  0  0  0  0  0  0  0  0  0
  -16.2103   36.9135  -21.0718 O   0  0  0  0  0  0  0  0  0  0  0  0
  -18.2850   35.8875  -21.8801 C   0  0  0  0  0  0  0  0  0  0  0  0
  -19.4287   36.4732  -22.3742 C   0  0  0  0  0  0  0  0  0  0  0  0
  -20.4599   35.6166  -22.7614 C   0  0  0  0  0  0  0  0  0  0  0  0
  -20.3093   34.2517  -22.6422 C   0  0  0  0  0  0  0  0  0  0  0  0
  -19.1744   33.6697  -22.1518 C   0  0  0  0  0  0  0  0  0  0  0  0
  -18.1481   34.5026  -21.7656 C   0  0  0  0  0  0  0  0  0  0  0  0
  -17.0893   33.7196  -21.2981 O   0  0  0  0  0  0  0  0  0  0  0  0
  -17.6319   32.4548  -20.9734 C   0  0  0  0  0  0  0  0  0  0  0  0
  -18.7141   32.3829  -21.9087 O   0  0  0  0  0  0  0  0  0  0  0  0
  -18.0113   43.1089  -22.6241 O   0  0  0  0  0  0  0  0  0  0  0  0
  -17.6258   44.1673  -23.4926 C   0  0  0  0  0  0  0  0  0  0  0  0
  -18.0528   43.7929  -24.7825 O   0  0  0  0  0  0  0  0  0  0  0  0
  1  2  1  0
  2  3  1  0
  3  4  1  0
  4  5  1  0
  5  6  2  0
  6  7  1  0
  7  8  2  0
  8  9  1  0
  9 10  2  0
 10 11  1  0
 11 12  1  0
 12 13  1  6
 13 14  1  0
 14 15  2  0
 14 16  1  0
 16 17  2  0
 17 18  1  0
 18 19  2  0
 19 20  1  0
 20 21  2  0
 21 22  1  0
 22 23  1  0
 23 24  1  0
  8 25  1  0
 25 26  1  0
 26 27  1  0
 11  2  1  1
 17 12  1  0
 24 20  1  0
 10  5  1  0
 21 16  1  0
 27  7  1  0
M  END
$$$$
