
     RDKit          3D

 16 18  0  0  0  0  0  0  0  0999 V2000
  -18.1866   41.1795  -20.2957 C   0  0  0  0  0  0  0  0  0  0  0  0
  -16.9354   41.5128  -20.8351 O   0  0  0  0  0  0  0  0  0  0  0  0
  -16.5310   42.7897  -21.1660 C   0  0  0  0  0  0  0  0  0  0  0  0
  -15.3864   43.3260  -20.5958 C   0  0  0  0  0  0  0  0  0  0  0  0
  -14.5149   42.8612  -19.7340 O   0  0  0  0  0  0  0  0  0  0  0  0
  -13.5792   43.7347  -19.4808 C   0  0  0  0  0  0  0  0  0  0  0  0
  -13.8444   44.8611  -20.2253 C   0  0  0  0  0  0  0  0  0  0  0  0
  -15.0032   44.6042  -20.9428 C   0  0  0  0  0  0  0  0  0  0  0  0
  -15.7373   45.3576  -21.8459 C   0  0  0  0  0  0  0  0  0  0  0  0
  -16.8620   44.8322  -22.4070 C   0  0  0  0  0  0  0  0  0  0  0  0
  -17.6026   45.5753  -23.3098 C   0  0  0  0  0  0  0  0  0  0  0  0
  -18.7275   44.9939  -23.8437 C   0  0  0  0  0  0  0  0  0  0  0  0
  -19.0441   43.7165  -23.4487 C   0  0  0  0  0  0  0  0  0  0  0  0
  -20.0812   43.2061  -23.9534 O   0  0  0  0  0  0  0  0  0  0  0  0
  -18.3400   43.0174  -22.5939 O   0  0  0  0  0  0  0  0  0  0  0  0
  -17.2589   43.5397  -22.0630 C   0  0  0  0  0  0  0  0  0  0  0  0
  1  2  1  0
  2  3  1  0
  3  4  2  0
  4  5  1  0
  5  6  1  0
  6  7  2  0
  7  8  1  0
  8  9  2  0
  9 10  1  0
 10 11  1  0
 11 12  2  0
 12 13  1  0
 13 14  2  0
 13 15  1  0
 15 16  1  0
 16  3  1  0
  8  4  1  0
 16 10  2  0
M  END
$$$$
