
     RDKit          3D

 33 37  0  0  0  0  0  0  0  0999 V2000
  -18.7907   -6.5158  -31.0708 C   0  0  0  0  0  0  0  0  0  0  0  0
  -18.3124   -5.3486  -30.4896 O   0  0  0  0  0  0  0  0  0  0  0  0
  -16.9831   -4.9574  -30.3929 C   0  0  0  0  0  0  0  0  0  0  0  0
  -16.0221   -5.7567  -29.8360 C   0  0  0  0  0  0  0  0  0  0  0  0
  -14.6816   -5.3557  -29.7413 C   0  0  0  0  0  0  0  0  0  0  0  0
  -13.7728   -6.0909  -29.2240 O   0  0  0  0  0  0  0  0  0  0  0  0
  -12.8637   -6.8260  -28.6691 C   0  0  0  0  0  0  0  0  0  0  0  0
  -12.1932   -6.2692  -27.4098 C   0  0  0  0  0  0  0  0  0  0  0  0
  -13.0097   -6.5643  -26.1785 C   0  0  0  0  0  0  0  0  0  0  0  0
  -13.2601   -7.9633  -25.9952 N   0  0  0  0  0  0  0  0  0  0  0  0
  -12.0751   -8.7199  -25.6861 C   0  0  0  0  0  0  0  0  0  0  0  0
  -13.9612   -8.4745  -27.1304 C   0  0  0  0  0  0  0  0  0  0  0  0
  -13.2336   -8.2933  -28.4360 C   0  0  0  0  0  0  0  0  0  0  0  0
  -14.4001   -4.0840  -30.2557 C   0  0  0  0  0  0  0  0  0  0  0  0
  -15.3608   -3.2730  -30.8179 C   0  0  0  0  0  0  0  0  0  0  0  0
  -16.6710   -3.6866  -30.9007 C   0  0  0  0  0  0  0  0  0  0  0  0
  -17.6943   -2.9037  -31.4642 N   0  0  0  0  0  0  0  0  0  0  0  0
  -17.6792   -1.5021  -31.7000 C   0  0  0  0  0  0  0  0  0  0  0  0
  -18.7068   -0.7780  -32.1400 N   0  0  0  0  0  0  0  0  0  0  0  0
  -18.7316    0.5348  -32.3721 C   0  0  0  0  0  0  0  0  0  0  0  0
  -17.5618    1.2251  -32.1300 C   0  0  0  0  0  0  0  0  0  0  0  0
  -16.4718    0.5129  -31.6729 C   0  0  0  0  0  0  0  0  0  0  0  0
  -16.5280   -0.8072  -31.4645 N   0  0  0  0  0  0  0  0  0  0  0  0
  -15.4853    1.4408  -31.5280 N   0  0  0  0  0  0  0  0  0  0  0  0
  -14.1599    1.0944  -31.0607 C   0  0  0  0  0  0  0  0  0  0  0  0
  -13.4060    2.2920  -30.5753 C   0  0  0  0  0  0  0  0  0  0  0  0
  -11.9388    1.8683  -30.6803 C   0  0  0  0  0  0  0  0  0  0  0  0
  -11.9299    1.1488  -32.0159 C   0  0  0  0  0  0  0  0  0  0  0  0
  -13.2969    0.5754  -32.2054 C   0  0  0  0  0  0  0  0  0  0  0  0
  -15.9127    2.6472  -31.8659 C   0  0  0  0  0  0  0  0  0  0  0  0
  -15.2168    3.7109  -31.8336 O   0  0  0  0  0  0  0  0  0  0  0  0
  -17.1980    2.5196  -32.2396 N   0  0  0  0  0  0  0  0  0  0  0  0
  -18.0419    3.5992  -32.6846 C   0  0  0  0  0  0  0  0  0  0  0  0
  1  2  1  0
  2  3  1  0
  3  4  2  0
  4  5  1  0
  5  6  1  0
  6  7  1  0
  7  8  1  0
  8  9  1  0
  9 10  1  0
 10 11  1  0
 10 12  1  0
 12 13  1  0
  5 14  2  0
 14 15  1  0
 15 16  2  0
 16 17  1  0
 17 18  1  0
 18 19  2  0
 19 20  1  0
 20 21  2  0
 21 22  1  0
 22 23  2  0
 22 24  1  0
 24 25  1  0
 25 26  1  0
 26 27  1  0
 27 28  1  0
 28 29  1  0
 24 30  1  0
 30 31  2  0
 30 32  1  0
 32 33  1  0
 16  3  1  0
 23 18  1  0
 29 25  1  0
 13  7  1  0
 32 21  1  0
M  END
$$$$
