
     RDKit          3D

 23 24  0  0  0  0  0  0  0  0999 V2000
  -38.2934   10.6648  -25.8624 C   0  0  0  0  0  0  0  0  0  0  0  0
  -36.9359   11.2976  -25.6679 C   0  0  0  0  0  0  0  0  0  0  0  0
  -37.1219   12.5533  -24.8450 C   0  0  0  0  0  0  0  0  0  0  0  0
  -35.8287   13.2009  -24.4740 C   0  0  0  0  0  0  0  0  0  0  0  0
  -35.9772   14.3783  -23.5685 C   0  0  0  0  0  0  0  0  0  0  0  0
  -34.6858   14.9802  -23.1017 C   0  0  0  0  0  0  0  0  0  0  0  0
  -33.7545   15.3390  -24.2409 C   0  0  0  0  0  0  0  0  0  0  0  0
  -33.3501   16.7741  -24.0564 C   0  0  0  0  0  0  0  0  0  0  0  0
  -32.1780   17.1739  -24.8667 C   0  0  0  0  0  0  0  0  0  0  0  0
  -30.9556   17.2784  -24.2209 C   0  0  0  0  0  0  0  0  0  0  0  0
  -29.8225   17.6445  -24.9168 C   0  0  0  0  0  0  0  0  0  0  0  0
  -29.8623   17.9212  -26.2838 C   0  0  0  0  0  0  0  0  0  0  0  0
  -28.6706   18.3072  -27.0206 C   0  0  0  0  0  0  0  0  0  0  0  0
  -28.2298   17.5969  -28.1111 C   0  0  0  0  0  0  0  0  0  0  0  0
  -27.0851   17.9731  -28.8165 C   0  0  0  0  0  0  0  0  0  0  0  0
  -26.3619   19.0787  -28.4312 C   0  0  0  0  0  0  0  0  0  0  0  0
  -25.1620   19.4840  -29.1612 C   0  0  0  0  0  0  0  0  0  0  0  0
  -24.4211   20.3830  -28.7159 O   0  0  0  0  0  0  0  0  0  0  0  0
  -24.8507   18.8553  -30.3645 O   0  0  0  0  0  0  0  0  0  0  0  0
  -26.8007   19.7938  -27.3379 C   0  0  0  0  0  0  0  0  0  0  0  0
  -27.9364   19.4106  -26.6474 C   0  0  0  0  0  0  0  0  0  0  0  0
  -31.0947   17.8073  -26.8934 C   0  0  0  0  0  0  0  0  0  0  0  0
  -32.2321   17.4420  -26.2057 C   0  0  0  0  0  0  0  0  0  0  0  0
  1  2  1  0
  2  3  1  0
  3  4  1  0
  4  5  1  0
  5  6  1  0
  6  7  1  0
  7  8  1  0
  8  9  1  0
  9 10  2  0
 10 11  1  0
 11 12  2  0
 12 13  1  0
 13 14  2  0
 14 15  1  0
 15 16  2  0
 16 17  1  0
 17 18  2  0
 17 19  1  0
 16 20  1  0
 20 21  2  0
 12 22  1  0
 22 23  2  0
 23  9  1  0
 21 13  1  0
M  END
$$$$
