
     RDKit          3D

 19 20  0  0  0  0  0  0  0  0999 V2000
  -21.1957   37.6831  -26.5811 C   0  0  0  0  0  0  0  0  0  0  0  0
  -20.1759   37.8709  -25.5183 C   0  0  0  0  0  0  0  0  0  0  0  0
  -20.5632   38.2096  -24.2465 C   0  0  0  0  0  0  0  0  0  0  0  0
  -19.5897   38.3788  -23.2734 C   0  0  0  0  0  0  0  0  0  0  0  0
  -18.2475   38.2171  -23.5462 C   0  0  0  0  0  0  0  0  0  0  0  0
  -16.9928   38.4223  -22.3443 S   0  0  0  0  0  6  0  0  0  0  0  0
  -17.6373   38.8501  -21.0489 O   0  0  0  0  0  0  0  0  0  0  0  0
  -16.0151   39.4589  -22.8098 O   0  0  0  0  0  0  0  0  0  0  0  0
  -16.1642   36.8688  -22.1661 C   0  0  0  0  0  0  0  0  0  0  0  0
  -17.1243   35.7421  -22.0261 C   0  0  0  0  0  0  0  0  0  0  0  0
  -17.8830   35.4871  -20.9024 C   0  0  0  0  0  0  0  0  0  0  0  0
  -18.6368   34.3792  -21.1482 C   0  0  0  0  0  0  0  0  0  0  0  0
  -18.3072   33.9822  -22.4461 C   0  0  0  0  0  0  0  0  0  0  0  0
  -18.9054   32.8168  -23.0978 C   0  0  0  0  0  0  0  0  0  0  0  0
  -19.7108   32.1207  -22.4301 O   0  0  0  0  0  0  0  0  0  0  0  0
  -18.6304   32.4535  -24.3890 O   0  0  0  0  0  0  0  0  0  0  0  0
  -17.4282   34.8189  -22.8850 O   0  0  0  0  0  0  0  0  0  0  0  0
  -17.9017   37.8768  -24.8367 C   0  0  0  0  0  0  0  0  0  0  0  0
  -18.8401   37.6995  -25.8326 C   0  0  0  0  0  0  0  0  0  0  0  0
  1  2  1  0
  2  3  2  0
  3  4  1  0
  4  5  2  0
  5  6  1  0
  6  7  2  0
  6  8  2  0
  6  9  1  0
  9 10  1  0
 10 11  2  0
 11 12  1  0
 12 13  2  0
 13 14  1  0
 14 15  2  0
 14 16  1  0
 13 17  1  0
  5 18  1  0
 18 19  2  0
 19  2  1  0
 17 10  1  0
M  END
$$$$
