
     RDKit          3D

 30 33  0  0  0  0  0  0  0  0999 V2000
  -18.6388   15.0607  -34.8827 O   0  0  0  0  0  0  0  0  0  0  0  0
  -19.0633   16.2558  -34.8849 C   0  0  0  0  0  0  0  0  0  0  0  0
  -18.5243   17.5254  -35.3770 C   0  0  2  0  0  0  0  0  0  0  0  0
  -17.5012   18.0936  -34.4096 C   0  0  0  0  0  0  0  0  0  0  0  0
  -16.1950   18.1781  -35.1473 C   0  0  0  0  0  0  0  0  0  0  0  0
  -14.9900   18.2008  -34.2503 C   0  0  2  0  0  0  0  0  0  0  0  0
  -13.8583   18.5850  -34.9790 O   0  0  0  0  0  0  0  0  0  0  0  0
  -14.7937   17.0032  -33.4441 C   0  0  0  0  0  0  0  0  0  0  0  0
  -15.2958   16.9602  -32.1606 C   0  0  0  0  0  0  0  0  0  0  0  0
  -15.1495   15.8574  -31.3490 C   0  0  0  0  0  0  0  0  0  0  0  0
  -14.4803   14.7582  -31.8309 C   0  0  0  0  0  0  0  0  0  0  0  0
  -14.3226   13.6504  -31.0420 F   0  0  0  0  0  0  0  0  0  0  0  0
  -13.9779   14.7825  -33.0955 C   0  0  0  0  0  0  0  0  0  0  0  0
  -14.1295   15.8989  -33.9084 C   0  0  0  0  0  0  0  0  0  0  0  0
  -19.9070   18.0664  -35.2380 C   0  0  1  0  0  0  0  0  0  0  0  0
  -20.6046   18.0673  -36.5453 C   0  0  0  0  0  0  0  0  0  0  0  0
  -20.5518   19.1507  -37.3892 C   0  0  0  0  0  0  0  0  0  0  0  0
  -21.2117   19.1474  -38.6221 C   0  0  0  0  0  0  0  0  0  0  0  0
  -21.9361   18.0192  -38.9965 C   0  0  0  0  0  0  0  0  0  0  0  0
  -22.5714   18.0593  -40.2211 O   0  0  0  0  0  0  0  0  0  0  0  0
  -21.9956   16.9279  -38.1583 C   0  0  0  0  0  0  0  0  0  0  0  0
  -21.3215   16.9693  -36.9320 C   0  0  0  0  0  0  0  0  0  0  0  0
  -20.2309   16.9227  -34.4255 N   0  0  0  0  0  0  0  0  0  0  0  0
  -21.3069   16.6184  -33.5285 C   0  0  0  0  0  0  0  0  0  0  0  0
  -22.2503   17.5883  -33.2140 C   0  0  0  0  0  0  0  0  0  0  0  0
  -23.2885   17.3181  -32.3575 C   0  0  0  0  0  0  0  0  0  0  0  0
  -23.3874   16.0479  -31.8008 C   0  0  0  0  0  0  0  0  0  0  0  0
  -24.4114   15.7645  -30.9495 F   0  0  0  0  0  0  0  0  0  0  0  0
  -22.4456   15.1076  -32.1253 C   0  0  0  0  0  0  0  0  0  0  0  0
  -21.3968   15.3694  -32.9864 C   0  0  0  0  0  0  0  0  0  0  0  0
  1  2  2  0
  2  3  1  0
  3  4  1  1
  4  5  1  0
  5  6  1  0
  6  7  1  6
  6  8  1  0
  8  9  2  0
  9 10  1  0
 10 11  2  0
 11 12  1  0
 11 13  1  0
 13 14  2  0
  3 15  1  0
 15 16  1  6
 16 17  2  0
 17 18  1  0
 18 19  2  0
 19 20  1  0
 19 21  1  0
 21 22  2  0
 15 23  1  0
 23 24  1  0
 24 25  2  0
 25 26  1  0
 26 27  2  0
 27 28  1  0
 27 29  1  0
 29 30  2  0
 23  2  1  0
 30 24  1  0
 14  8  1  0
 22 16  1  0
M  END
$$$$
