
     RDKit          3D

 41 44  0  0  0  0  0  0  0  0999 V2000
  -33.3627   18.0570  -27.3855 C   0  0  0  0  0  0  0  0  0  0  0  0
  -32.0340   18.3676  -27.9959 C   0  0  0  0  0  0  0  0  0  0  0  0
  -30.9026   17.7183  -27.5014 N   0  0  0  0  0  0  0  0  0  0  0  0
  -30.1272   18.6477  -26.7220 C   0  0  0  0  0  0  0  0  0  0  0  0
  -29.8760   19.9679  -27.4013 C   0  0  0  0  0  0  0  0  0  0  0  0
  -30.9415   18.9577  -25.4706 C   0  0  0  0  0  0  0  0  0  0  0  0
  -28.8229   18.0636  -26.2460 C   0  0  0  0  0  0  0  0  0  0  0  0
  -28.0362   17.5114  -27.4228 C   0  0  0  0  0  0  0  0  0  0  0  0
  -27.2587   18.4540  -28.0190 O   0  0  0  0  0  0  0  0  0  0  0  0
  -26.0928   18.7642  -28.5240 C   0  0  0  0  0  0  0  0  0  0  0  0
  -25.2059   19.6956  -28.0350 C   0  0  0  0  0  0  0  0  0  0  0  0
  -23.9922   19.9563  -28.6436 C   0  0  0  0  0  0  0  0  0  0  0  0
  -23.6219   19.2616  -29.8054 C   0  0  0  0  0  0  0  0  0  0  0  0
  -22.3636   19.5368  -30.4332 C   0  0  0  0  0  0  0  0  0  0  0  0
  -21.4883   20.2024  -29.8400 O   0  0  0  0  0  0  0  0  0  0  0  0
  -22.0422   19.0690  -31.7608 N   0  0  0  0  0  0  0  0  0  0  0  0
  -20.6937   19.0290  -32.2183 C   0  0  0  0  0  0  0  0  0  0  0  0
  -20.0054   20.2242  -32.4320 C   0  0  0  0  0  0  0  0  0  0  0  0
  -18.7117   20.2094  -32.8986 C   0  0  0  0  0  0  0  0  0  0  0  0
  -18.0237   19.0276  -33.1818 C   0  0  0  0  0  0  0  0  0  0  0  0
  -16.6942   19.0988  -33.6674 N   0  0  0  0  0  0  0  0  0  0  0  0
  -16.3210   18.6522  -34.9535 C   0  0  0  0  0  0  0  0  0  0  0  0
  -17.1096   17.9955  -35.6794 O   0  0  0  0  0  0  0  0  0  0  0  0
  -15.0261   18.9243  -35.5011 N   0  0  0  0  0  0  0  0  0  0  0  0
  -14.5592   18.4570  -36.7435 C   0  0  0  0  0  0  0  0  0  0  0  0
  -13.3457   17.7964  -36.9457 C   0  0  0  0  0  0  0  0  0  0  0  0
  -13.2594   17.4990  -38.3055 C   0  0  0  0  0  0  0  0  0  0  0  0
  -12.1215   16.7959  -38.9367 C   0  0  0  0  0  0  0  0  0  0  0  0
  -12.5711   16.0303  -40.1719 C   0  0  0  0  0  0  0  0  0  0  0  0
  -11.0670   17.8044  -39.3279 C   0  0  0  0  0  0  0  0  0  0  0  0
  -11.5513   15.8078  -37.9542 C   0  0  0  0  0  0  0  0  0  0  0  0
  -14.3591   17.9619  -38.8536 O   0  0  0  0  0  0  0  0  0  0  0  0
  -15.1127   18.5155  -37.9584 N   0  0  0  0  0  0  0  0  0  0  0  0
  -18.7076   17.8490  -32.9690 C   0  0  0  0  0  0  0  0  0  0  0  0
  -20.0120   17.8611  -32.4975 C   0  0  0  0  0  0  0  0  0  0  0  0
  -24.5037   18.3709  -30.2472 N   0  0  0  0  0  0  0  0  0  0  0  0
  -25.6770   18.0828  -29.7042 C   0  0  0  0  0  0  0  0  0  0  0  0
  -28.8115   16.5747  -28.2606 C   0  0  0  0  0  0  0  0  0  0  0  0
  -30.2894   16.6197  -28.0544 C   0  0  0  0  0  0  0  0  0  0  0  0
  -30.5934   15.4309  -27.0743 C   0  0  0  0  0  0  0  0  0  0  0  0
  -30.8647   16.0752  -29.3648 C   0  0  0  0  0  0  0  0  0  0  0  0
  1  2  1  0
  2  3  1  0
  3  4  1  0
  4  5  1  0
  4  6  1  0
  4  7  1  0
  7  8  1  0
  8  9  1  0
  9 10  1  0
 10 11  2  0
 11 12  1  0
 12 13  2  0
 13 14  1  0
 14 15  2  0
 14 16  1  0
 16 17  1  0
 17 18  2  0
 18 19  1  0
 19 20  2  0
 20 21  1  0
 21 22  1  0
 22 23  2  0
 22 24  1  0
 24 25  1  0
 25 26  1  0
 26 27  2  0
 27 28  1  0
 28 29  1  0
 28 30  1  0
 28 31  1  0
 27 32  1  0
 32 33  1  0
 20 34  1  0
 34 35  2  0
 13 36  1  0
 36 37  2  0
  8 38  1  0
 38 39  1  0
 39 40  1  0
 39 41  1  0
 39  3  1  0
 37 10  1  0
 35 17  1  0
 33 25  2  0
M  END
$$$$
