
     RDKit          3D

 12 13  0  0  0  0  0  0  0  0999 V2000
  -22.5882   26.4707  -32.7518 O   0  0  0  0  0  0  0  0  0  0  0  0
  -23.7840   26.5064  -33.1987 C   0  0  0  0  0  0  0  0  0  0  0  0
  -24.0965   27.4325  -34.1722 C   0  0  0  0  0  0  0  0  0  0  0  0
  -25.3851   27.4710  -34.6539 C   0  0  0  0  0  0  0  0  0  0  0  0
  -26.3330   26.5892  -34.1576 C   0  0  0  0  0  0  0  0  0  0  0  0
  -27.6415   26.5753  -34.5971 C   0  0  0  0  0  0  0  0  0  0  0  0
  -28.5774   25.6841  -34.0879 C   0  0  0  0  0  0  0  0  0  0  0  0
  -28.1978   24.7877  -33.1190 C   0  0  0  0  0  0  0  0  0  0  0  0
  -29.1036   23.8640  -32.5691 O   0  0  0  0  0  0  0  0  0  0  0  0
  -26.8913   24.8138  -32.6916 C   0  0  0  0  0  0  0  0  0  0  0  0
  -25.9280   25.6994  -33.1860 C   0  0  0  0  0  0  0  0  0  0  0  0
  -24.6929   25.6778  -32.7387 O   0  0  0  0  0  0  0  0  0  0  0  0
  1  2  2  0
  2  3  1  0
  3  4  2  0
  4  5  1  0
  5  6  2  0
  6  7  1  0
  7  8  2  0
  8  9  1  0
  8 10  1  0
 10 11  2  0
 11 12  1  0
 12  2  1  0
 11  5  1  0
M  END
$$$$
