
     RDKit          3D

 29 33  0  0  0  0  0  0  0  0999 V2000
  -37.4931   10.4538  -23.8599 C   0  0  0  0  0  0  0  0  0  0  0  0
  -37.0359   11.6176  -23.1718 N   0  0  0  0  0  0  0  0  0  0  0  0
  -35.6315   11.4551  -22.6793 C   0  0  0  0  0  0  0  0  0  0  0  0
  -34.7730   11.3092  -23.9296 C   0  0  0  0  0  0  0  0  0  0  0  0
  -34.8635   12.5174  -24.7330 N   0  0  0  0  0  0  0  0  0  0  0  0
  -33.7317   13.2409  -25.1916 C   0  0  0  0  0  0  0  0  0  0  0  0
  -32.6126   12.5569  -25.6358 C   0  0  0  0  0  0  0  0  0  0  0  0
  -31.4798   13.1892  -26.1090 C   0  0  0  0  0  0  0  0  0  0  0  0
  -31.4822   14.5856  -26.1377 C   0  0  0  0  0  0  0  0  0  0  0  0
  -30.6851   15.4971  -26.4831 N   0  0  0  0  0  0  0  0  0  0  0  0
  -30.8716   16.7776  -26.4439 C   0  0  0  0  0  0  0  0  0  0  0  0
  -30.7219   18.1453  -26.4359 C   0  0  0  0  0  0  0  0  0  0  0  0
  -29.3791   18.6073  -26.0120 C   0  0  0  0  0  0  0  0  0  0  0  0
  -28.5054   17.5894  -25.6160 N   0  0  0  0  0  0  0  0  0  0  0  0
  -29.0231   19.8862  -26.0023 C   0  0  0  0  0  0  0  0  0  0  0  0
  -27.7212   20.2995  -25.5307 C   0  0  0  0  0  0  0  0  0  0  0  0
  -26.9110   19.3128  -25.1596 F   0  0  0  0  0  0  0  0  0  0  0  0
  -27.4498   21.6300  -25.5070 C   0  0  0  0  0  0  0  0  0  0  0  0
  -28.2815   22.6486  -25.8915 C   0  0  0  0  0  0  0  0  0  0  0  0
  -29.5377   22.2095  -26.3476 C   0  0  0  0  0  0  0  0  0  0  0  0
  -29.8776   20.8888  -26.3920 C   0  0  0  0  0  0  0  0  0  0  0  0
  -31.1294   20.5067  -26.7912 N   0  0  0  0  0  0  0  0  0  0  0  0
  -31.4711   19.2285  -26.7983 C   0  0  0  0  0  0  0  0  0  0  0  0
  -32.6886   18.9590  -27.2116 O   0  0  0  0  0  0  0  0  0  0  0  0
  -32.3071   16.5336  -25.8530 N   0  0  0  0  0  0  0  0  0  0  0  0
  -32.5704   15.2639  -25.7120 C   0  0  0  0  0  0  0  0  0  0  0  0
  -33.7236   14.6244  -25.2259 C   0  0  0  0  0  0  0  0  0  0  0  0
  -36.2132   12.9322  -25.0737 C   0  0  0  0  0  0  0  0  0  0  0  0
  -37.1178   12.8630  -23.8750 C   0  0  0  0  0  0  0  0  0  0  0  0
  1  2  1  0
  2  3  1  0
  3  4  1  0
  4  5  1  0
  5  6  1  0
  6  7  2  0
  7  8  1  0
  8  9  2  0
  9 10  1  0
 10 11  2  0
 11 12  1  0
 12 13  2  0
 13 14  1  0
 13 15  1  0
 15 16  2  0
 16 17  1  0
 16 18  1  0
 18 19  2  0
 19 20  1  0
 20 21  2  0
 21 22  1  0
 22 23  1  0
 23 24  2  0
 11 25  1  0
 25 26  1  0
 26 27  2  0
  5 28  1  0
 28 29  1  0
 29  2  1  0
 27  6  1  0
 26  9  1  0
 23 12  1  0
 21 15  1  0
M  END
$$$$
