
     RDKit          3D

 35 39  0  0  0  0  0  0  0  0999 V2000
  -25.1170   19.6756  -27.4746 C   0  0  0  0  0  0  0  0  0  0  0  0
  -25.7837   20.4362  -28.5313 C   0  0  0  0  0  0  0  0  0  0  0  0
  -26.3358   21.0931  -29.4460 C   0  0  0  0  0  0  0  0  0  0  0  0
  -26.9593   21.8474  -30.4929 C   0  0  0  0  0  0  0  0  0  0  0  0
  -26.2611   22.2620  -31.4497 O   0  0  0  0  0  0  0  0  0  0  0  0
  -28.3223   22.1046  -30.4290 N   0  0  0  0  0  0  0  0  0  0  0  0
  -29.0009   23.1639  -31.1807 C   0  0  0  0  0  0  0  0  0  0  0  0
  -30.4051   22.7267  -31.4119 C   0  0  0  0  0  0  0  0  0  0  0  0
  -30.4667   21.3381  -30.7177 C   0  0  0  0  0  0  0  0  0  0  0  0
  -29.3887   21.4907  -29.6975 C   0  0  1  0  0  0  0  0  0  0  0  0
  -29.0484   20.3648  -28.8561 C   0  0  0  0  0  0  0  0  0  0  0  0
  -28.8821   19.1016  -29.3582 N   0  0  0  0  0  0  0  0  0  0  0  0
  -28.5075   18.2495  -28.4024 C   0  0  0  0  0  0  0  0  0  0  0  0
  -28.2233   16.8143  -28.6346 C   0  0  0  0  0  0  0  0  0  0  0  0
  -28.9562   15.8316  -28.0840 C   0  0  0  0  0  0  0  0  0  0  0  0
  -28.5852   14.4941  -28.3274 C   0  0  0  0  0  0  0  0  0  0  0  0
  -27.5132   14.1583  -29.1017 C   0  0  0  0  0  0  0  0  0  0  0  0
  -27.1496   12.7586  -29.3137 C   0  0  0  0  0  0  0  0  0  0  0  0
  -26.4203   12.3857  -30.2711 O   0  0  0  0  0  0  0  0  0  0  0  0
  -27.6233   11.7723  -28.4193 N   0  0  0  0  0  0  0  0  0  0  0  0
  -27.4337   10.3731  -28.6293 C   0  0  0  0  0  0  0  0  0  0  0  0
  -26.7124    9.9803  -29.7589 C   0  0  0  0  0  0  0  0  0  0  0  0
  -26.5191    8.6448  -30.0058 C   0  0  0  0  0  0  0  0  0  0  0  0
  -27.0467    7.7028  -29.1303 C   0  0  0  0  0  0  0  0  0  0  0  0
  -27.7565    8.1602  -28.0198 C   0  0  0  0  0  0  0  0  0  0  0  0
  -27.9377    9.4657  -27.7872 N   0  0  0  0  0  0  0  0  0  0  0  0
  -26.7807   15.1815  -29.6566 C   0  0  0  0  0  0  0  0  0  0  0  0
  -27.1162   16.4982  -29.4367 C   0  0  0  0  0  0  0  0  0  0  0  0
  -28.4244   18.9670  -27.2410 C   0  0  0  0  0  0  0  0  0  0  0  0
  -28.0690   18.5762  -25.9776 C   0  0  0  0  0  0  0  0  0  0  0  0
  -27.6609   17.2688  -25.5994 N   0  0  0  0  0  0  0  0  0  0  0  0
  -28.0546   19.5083  -24.9678 N   0  0  0  0  0  0  0  0  0  0  0  0
  -28.3924   20.7574  -25.2638 C   0  0  0  0  0  0  0  0  0  0  0  0
  -28.7445   21.1264  -26.5517 C   0  0  0  0  0  0  0  0  0  0  0  0
  -28.7619   20.2353  -27.5623 N   0  0  0  0  0  0  0  0  0  0  0  0
  1  2  1  0
  2  3  3  0
  3  4  1  0
  4  5  2  0
  4  6  1  0
  6  7  1  0
  7  8  1  0
  8  9  1  0
  9 10  1  0
 10 11  1  6
 11 12  2  0
 12 13  1  0
 13 14  1  0
 14 15  2  0
 15 16  1  0
 16 17  2  0
 17 18  1  0
 18 19  2  0
 18 20  1  0
 20 21  1  0
 21 22  2  0
 22 23  1  0
 23 24  2  0
 24 25  1  0
 25 26  2  0
 17 27  1  0
 27 28  2  0
 13 29  2  0
 29 30  1  0
 30 31  1  0
 30 32  2  0
 32 33  1  0
 33 34  2  0
 34 35  1  0
 10  6  1  0
 35 11  1  0
 28 14  1  0
 35 29  1  0
 26 21  1  0
M  END
$$$$
