
     RDKit          3D

 28 29  0  0  0  0  0  0  0  0999 V2000
    6.7264   22.3512  -17.3753 C   0  0  0  0  0  0  0  0  0  0  0  0
    6.0071   23.4412  -18.1465 C   0  0  0  0  0  0  0  0  0  0  0  0
    6.8337   24.6505  -18.3845 C   0  0  0  0  0  0  0  0  0  0  0  0
    4.6583   23.6553  -17.6961 N   0  0  0  0  0  4  0  0  0  0  0  0
    4.0680   24.5077  -18.7424 C   0  0  0  0  0  0  0  0  0  0  0  0
    3.9831   22.3557  -17.8757 C   0  0  0  0  0  0  0  0  0  0  0  0
    3.4185   22.1858  -19.2426 C   0  0  0  0  0  0  0  0  0  0  0  0
    2.7902   20.9338  -19.3429 O   0  0  0  0  0  0  0  0  0  0  0  0
    3.3430   19.6997  -19.2136 C   0  0  0  0  0  0  0  0  0  0  0  0
    4.5766   19.6443  -18.9768 O   0  0  0  0  0  0  0  0  0  0  0  0
    2.6352   18.4089  -19.3241 C   0  0  0  0  0  0  0  0  0  0  0  0
    1.5758   18.1721  -18.4006 C   0  0  0  0  0  0  0  0  0  0  0  0
    1.7445   18.2261  -17.0008 C   0  0  0  0  0  0  0  0  0  0  0  0
    0.7470   18.0034  -16.1125 C   0  0  0  0  0  0  0  0  0  0  0  0
   -0.5117   17.7058  -16.5520 C   0  0  0  0  0  0  0  0  0  0  0  0
   -0.7345   17.6397  -17.8989 C   0  0  0  0  0  0  0  0  0  0  0  0
    0.3053   17.8722  -18.8012 C   0  0  0  0  0  0  0  0  0  0  0  0
   -0.0720   17.7703  -20.1338 O   0  0  0  0  0  0  0  0  0  0  0  0
    0.9405   17.9960  -21.0739 C   0  0  0  0  0  0  0  0  0  0  0  0
    0.6328   17.9100  -22.4395 C   0  0  0  0  0  0  0  0  0  0  0  0
    1.5654   18.1167  -23.4177 C   0  0  0  0  0  0  0  0  0  0  0  0
    2.8440   18.4184  -23.0344 C   0  0  0  0  0  0  0  0  0  0  0  0
    3.2085   18.5171  -21.7216 C   0  0  0  0  0  0  0  0  0  0  0  0
    2.2239   18.2983  -20.7362 C   0  0  0  0  0  0  0  0  0  0  0  0
    4.4553   24.2499  -16.4461 C   0  0  0  0  0  0  0  0  0  0  0  0
    5.6373   24.7467  -15.6861 C   0  0  0  0  0  0  0  0  0  0  0  0
    3.6417   23.3884  -15.4653 C   0  0  0  0  0  0  0  0  0  0  0  0
    3.4124   21.2354  -18.4698 Br  0  0  0  0  0 15  0  0  0  0  0  0
  1  2  1  0
  2  3  1  0
  2  4  1  0
  4  5  1  0
  4  6  1  0
  6  7  1  0
  7  8  1  0
  8  9  1  0
  9 10  2  0
  9 11  1  0
 11 12  1  0
 12 13  2  0
 13 14  1  0
 14 15  2  0
 15 16  1  0
 16 17  2  0
 17 18  1  0
 18 19  1  0
 19 20  2  0
 20 21  1  0
 21 22  2  0
 22 23  1  0
 23 24  2  0
  4 25  1  0
 25 26  1  0
 25 27  1  0
 24 11  1  0
 17 12  1  0
 24 19  1  0
M  CHG  2   4   1  28  -1
M  END
$$$$
