
     RDKit          3D

 29 32  0  0  0  0  0  0  0  0999 V2000
  -18.5770   14.1887  -30.0671 N   0  0  0  0  0  0  0  0  0  0  0  0
  -17.8193   15.1968  -30.7166 C   0  0  0  0  0  0  0  0  0  0  0  0
  -17.7460   15.2337  -32.0687 N   0  0  0  0  0  0  0  0  0  0  0  0
  -17.0514   16.1554  -32.7293 C   0  0  0  0  0  0  0  0  0  0  0  0
  -16.9676   16.1972  -34.1545 N   0  0  0  0  0  0  0  0  0  0  0  0
  -16.3666   17.1276  -32.0399 C   0  0  0  0  0  0  0  0  0  0  0  0
  -15.6243   18.1161  -32.6785 C   0  0  0  0  0  0  0  0  0  0  0  0
  -15.5962   18.0916  -34.0532 O   0  0  0  0  0  0  0  0  0  0  0  0
  -14.6211   18.7574  -34.8298 C   0  0  0  0  0  0  0  0  0  0  0  0
  -14.2431   17.9008  -36.0260 C   0  0  0  0  0  0  0  0  0  0  0  0
  -13.1397   18.4554  -36.8485 C   0  0  0  0  0  0  0  0  0  0  0  0
  -13.2553   18.3471  -38.3232 C   0  0  0  0  0  0  0  0  0  0  0  0
  -14.1947   17.4714  -38.8772 N   0  0  0  0  0  0  0  0  0  0  0  0
  -13.9431   16.8492  -40.1198 C   0  0  0  0  0  0  0  0  0  0  0  0
  -13.0390   17.5366  -41.0400 C   0  0  0  0  0  0  0  0  0  0  0  0
  -11.6727   17.2555  -41.0129 C   0  0  0  0  0  0  0  0  0  0  0  0
  -11.1330   16.0624  -39.8636 Cl  0  0  0  0  0  0  0  0  0  0  0  0
  -10.7825   17.9044  -41.8715 C   0  0  0  0  0  0  0  0  0  0  0  0
  -11.2329   18.8447  -42.7729 C   0  0  0  0  0  0  0  0  0  0  0  0
  -12.5833   19.1103  -42.7862 C   0  0  0  0  0  0  0  0  0  0  0  0
  -13.4934   18.4717  -41.9339 C   0  0  0  0  0  0  0  0  0  0  0  0
  -15.2007   18.8951  -42.0082 Cl  0  0  0  0  0  0  0  0  0  0  0  0
  -15.0917   16.7697  -38.0414 C   0  0  0  0  0  0  0  0  0  0  0  0
  -15.4641   17.6936  -36.8887 C   0  0  0  0  0  0  0  0  0  0  0  0
  -14.9742   19.0440  -31.9088 C   0  0  0  0  0  0  0  0  0  0  0  0
  -15.0548   18.9987  -30.5167 C   0  0  0  0  0  0  0  0  0  0  0  0
  -15.7855   18.0267  -29.8754 C   0  0  0  0  0  0  0  0  0  0  0  0
  -16.4429   17.0882  -30.6546 C   0  0  0  0  0  0  0  0  0  0  0  0
  -17.1506   16.1456  -30.0501 N   0  0  0  0  0  0  0  0  0  0  0  0
  1  2  1  0
  2  3  2  0
  3  4  1  0
  4  5  1  0
  4  6  2  0
  6  7  1  0
  7  8  1  0
  8  9  1  0
  9 10  1  0
 10 11  1  0
 11 12  1  0
 12 13  1  0
 13 14  1  0
 14 15  1  0
 15 16  2  0
 16 17  1  0
 16 18  1  0
 18 19  2  0
 19 20  1  0
 20 21  2  0
 21 22  1  0
 13 23  1  0
 23 24  1  0
  7 25  2  0
 25 26  1  0
 26 27  2  0
 27 28  1  0
 28 29  2  0
 29  2  1  0
 28  6  1  0
 24 10  1  0
 21 15  1  0
M  END
$$$$
