
     RDKit          3D

 29 33  0  0  0  0  0  0  0  0999 V2000
  -25.1930   16.3780  -23.5521 O   0  0  0  0  0  0  0  0  0  0  0  0
  -25.9925   16.3830  -24.5534 C   0  0  0  0  0  0  0  0  0  0  0  0
  -27.0877   17.1707  -24.7626 O   0  0  0  0  0  0  0  0  0  0  0  0
  -27.6778   16.8403  -25.9987 C   0  0  0  0  0  0  0  0  0  0  0  0
  -26.8364   15.7355  -26.5824 C   0  0  0  0  0  0  0  0  0  0  0  0
  -26.9162   15.0226  -27.7447 C   0  0  0  0  0  0  0  0  0  0  0  0
  -25.9788   14.0472  -28.0144 C   0  0  0  0  0  0  0  0  0  0  0  0
  -24.9653   13.7780  -27.1363 C   0  0  0  0  0  0  0  0  0  0  0  0
  -24.8869   14.4987  -25.9642 C   0  0  0  0  0  0  0  0  0  0  0  0
  -25.8376   15.4926  -25.6838 C   0  0  0  0  0  0  0  0  0  0  0  0
  -29.0419   16.3089  -25.8391 C   0  0  0  0  0  0  0  0  0  0  0  0
  -29.2116   15.1575  -25.0517 C   0  0  0  0  0  0  0  0  0  0  0  0
  -30.4697   14.6319  -24.8794 C   0  0  0  0  0  0  0  0  0  0  0  0
  -30.7554   13.0632  -23.8152 Br  0  0  0  0  0  0  0  0  0  0  0  0
  -31.5920   15.2003  -25.4593 C   0  0  0  0  0  0  0  0  0  0  0  0
  -32.8693   14.6601  -25.2798 O   0  0  0  0  0  0  0  0  0  0  0  0
  -31.3889   16.3126  -26.2137 C   0  0  0  0  0  0  0  0  0  0  0  0
  -32.9245   17.1292  -27.0347 Br  0  0  0  0  0  0  0  0  0  0  0  0
  -30.1426   16.8695  -26.4100 C   0  0  0  0  0  0  0  0  0  0  0  0
  -29.9804   18.0158  -27.1950 O   0  0  0  0  0  0  0  0  0  0  0  0
  -28.7280   18.5810  -27.3962 C   0  0  0  0  0  0  0  0  0  0  0  0
  -27.6023   18.0461  -26.8395 C   0  0  0  0  0  0  0  0  0  0  0  0
  -26.3661   18.6613  -27.0786 C   0  0  0  0  0  0  0  0  0  0  0  0
  -26.2193   19.7846  -27.8497 C   0  0  0  0  0  0  0  0  0  0  0  0
  -24.5034   20.5802  -28.1404 Br  0  0  0  0  0  0  0  0  0  0  0  0
  -27.3578   20.3239  -28.4116 C   0  0  0  0  0  0  0  0  0  0  0  0
  -27.2172   21.4613  -29.1937 O   0  0  0  0  0  0  0  0  0  0  0  0
  -28.5784   19.7258  -28.1821 C   0  0  0  0  0  0  0  0  0  0  0  0
  -30.1595   20.4552  -28.9486 Br  0  0  0  0  0  0  0  0  0  0  0  0
  1  2  2  0
  2  3  1  0
  3  4  1  0
  4  5  1  0
  5  6  2  0
  6  7  1  0
  7  8  2  0
  8  9  1  0
  9 10  2  0
  4 11  1  0
 11 12  2  0
 12 13  1  0
 13 14  1  0
 13 15  2  0
 15 16  1  0
 15 17  1  0
 17 18  1  0
 17 19  2  0
 19 20  1  0
 20 21  1  0
 21 22  2  0
 22 23  1  0
 23 24  2  0
 24 25  1  0
 24 26  1  0
 26 27  1  0
 26 28  2  0
 28 29  1  0
 10  2  1  0
 19 11  1  0
 28 21  1  0
 22  4  1  0
 10  5  1  0
M  END
$$$$
