
     RDKit          3D

 35 37  0  0  0  0  0  0  0  0999 V2000
  -22.1604   36.1088  -24.2763 C   0  0  0  0  0  0  0  0  0  0  0  0
  -21.2892   36.8659  -25.2205 C   0  0  0  0  0  0  0  0  0  0  0  0
  -20.5184   37.9847  -24.6131 C   0  0  0  0  0  0  0  0  0  0  0  0
  -19.5934   37.5435  -23.5392 C   0  0  0  0  0  0  0  0  0  0  0  0
  -19.3621   36.3260  -23.0524 N   0  0  0  0  0  0  0  0  0  0  0  0
  -18.4460   36.3605  -22.0881 C   0  0  0  0  0  0  0  0  0  0  0  0
  -17.9102   35.1976  -21.2970 C   0  0  0  0  0  0  0  0  0  0  0  0
  -18.0912   37.6854  -21.9746 C   0  0  0  0  0  0  0  0  0  0  0  0
  -17.2045   38.3653  -21.1711 C   0  0  0  0  0  0  0  0  0  0  0  0
  -16.5412   37.7140  -20.3384 O   0  0  0  0  0  0  0  0  0  0  0  0
  -17.0695   39.7208  -21.2983 N   0  0  0  0  0  0  0  0  0  0  0  0
  -17.7630   40.4418  -22.1775 C   0  0  0  0  0  0  0  0  0  0  0  0
  -17.6774   41.8819  -22.3691 C   0  0  0  0  0  0  0  0  0  0  0  0
  -18.4502   42.4708  -23.3642 C   0  0  0  0  0  0  0  0  0  0  0  0
  -18.4203   43.8297  -23.5981 C   0  0  0  0  0  0  0  0  0  0  0  0
  -19.3988   44.5620  -24.8703 S   0  0  0  0  0  6  0  0  0  0  0  0
  -18.6663   45.7431  -25.4676 O   0  0  0  0  0  0  0  0  0  0  0  0
  -19.4814   43.5274  -25.9642 O   0  0  0  0  0  0  0  0  0  0  0  0
  -20.9044   45.0873  -24.3418 N   0  0  0  0  0  0  0  0  0  0  0  0
  -20.9533   46.0835  -23.3420 C   0  0  0  0  0  0  0  0  0  0  0  0
  -22.2867   46.7756  -23.3333 C   0  0  0  0  0  0  0  0  0  0  0  0
  -23.3469   46.0222  -23.9087 N   0  0  0  0  0  0  0  0  0  0  0  0
  -23.8688   46.5562  -25.1243 C   0  0  0  0  0  0  0  0  0  0  0  0
  -24.9907   45.7326  -25.7015 C   0  0  0  0  0  0  0  0  0  0  0  0
  -23.2458   44.6037  -23.8386 C   0  0  0  0  0  0  0  0  0  0  0  0
  -21.8996   44.0833  -24.3091 C   0  0  0  0  0  0  0  0  0  0  0  0
  -17.6153   44.6708  -22.8486 C   0  0  0  0  0  0  0  0  0  0  0  0
  -16.8465   44.0968  -21.8610 C   0  0  0  0  0  0  0  0  0  0  0  0
  -16.8919   42.7184  -21.6407 C   0  0  0  0  0  0  0  0  0  0  0  0
  -16.0840   42.2592  -20.6332 O   0  0  0  0  0  0  0  0  0  0  0  0
  -15.2363   42.9674  -19.8008 C   0  0  0  0  0  0  0  0  0  0  0  0
  -15.8661   44.0029  -18.9334 C   0  0  0  0  0  0  0  0  0  0  0  0
  -18.6296   39.7191  -22.9512 N   0  0  0  0  0  0  0  0  0  0  0  0
  -18.7918   38.4148  -22.8625 N   0  0  0  0  0  0  0  0  0  0  0  0
  -19.3959   41.2996  -23.0254 Cl  0  0  0  0  0  0  0  0  0  0  0  0
  1  2  1  0
  2  3  1  0
  3  4  1  0
  4  5  2  0
  5  6  1  0
  6  7  1  0
  6  8  2  0
  8  9  1  0
  9 10  2  0
  9 11  1  0
 11 12  1  0
 12 13  1  0
 13 14  2  0
 14 15  1  0
 15 16  1  0
 16 17  2  0
 16 18  2  0
 16 19  1  0
 19 20  1  0
 20 21  1  0
 21 22  1  0
 22 23  1  0
 23 24  1  0
 22 25  1  0
 25 26  1  0
 15 27  2  0
 27 28  1  0
 28 29  2  0
 29 30  1  0
 30 31  1  0
 31 32  1  0
 12 33  2  0
 33 34  1  0
 34  4  1  0
 34  8  1  0
 29 13  1  0
 26 19  1  0
M  END
$$$$
