
     RDKit          3D

 16 15  0  0  0  0  0  0  0  0999 V2000
  -17.0221   39.4215  -22.9601 C   0  0  0  0  0  0  0  0  0  0  0  0
  -18.1010   38.7813  -22.1434 C   0  0  0  0  0  0  0  0  0  0  0  0
  -19.4399   39.0989  -22.7305 C   0  0  0  0  0  0  0  0  0  0  0  0
  -18.0527   39.4649  -20.7677 C   0  0  0  0  0  0  0  0  0  0  0  0
  -17.8926   37.3631  -21.9103 N   0  0  0  0  0  0  0  0  0  0  0  0
  -17.7969   36.6072  -23.1200 C   0  0  0  0  0  0  0  0  0  0  0  0
  -17.6152   35.1399  -22.8019 C   0  0  0  0  0  0  0  0  0  0  0  0
  -16.4638   34.9187  -22.0484 O   0  0  0  0  0  0  0  0  0  0  0  0
  -18.8154   34.4883  -22.2823 C   0  0  0  0  0  0  0  0  0  0  0  0
  -19.7571   34.0470  -23.2323 C   0  0  0  0  0  0  0  0  0  0  0  0
  -20.9210   33.4311  -22.8211 C   0  0  0  0  0  0  0  0  0  0  0  0
  -21.1544   33.2515  -21.4801 C   0  0  0  0  0  0  0  0  0  0  0  0
  -20.2121   33.6938  -20.5486 C   0  0  0  0  0  0  0  0  0  0  0  0
  -19.0525   34.3066  -20.9406 C   0  0  0  0  0  0  0  0  0  0  0  0
  -17.9066   34.8325  -19.7489 Cl  0  0  0  0  0  0  0  0  0  0  0  0
  -18.8982   36.0606  -22.5504 Cl  0  0  0  0  0  0  0  0  0  0  0  0
  1  2  1  0
  2  3  1  0
  2  4  1  0
  2  5  1  0
  5  6  1  0
  6  7  1  0
  7  8  1  0
  7  9  1  0
  9 10  2  0
 10 11  1  0
 11 12  2  0
 12 13  1  0
 13 14  2  0
 14 15  1  0
 14  9  1  0
M  END
$$$$
