
     RDKit          3D

 22 24  0  0  0  0  0  0  0  0999 V2000
  -19.9470   34.6029  -22.8448 O   0  0  0  0  0  0  0  0  0  0  0  0
  -20.0959   35.7810  -22.4622 C   0  0  0  0  0  0  0  0  0  0  0  0
  -21.3617   36.2795  -22.2747 O   0  0  0  0  0  0  0  0  0  0  0  0
  -18.9323   36.6397  -22.2105 C   0  0  0  0  0  0  0  0  0  0  0  0
  -17.6649   36.2012  -22.4846 C   0  0  0  0  0  0  0  0  0  0  0  0
  -16.6009   37.0382  -22.2337 C   0  0  0  0  0  0  0  0  0  0  0  0
  -16.7927   38.3096  -21.7113 C   0  0  0  0  0  0  0  0  0  0  0  0
  -18.0516   38.7402  -21.4410 C   0  0  0  0  0  0  0  0  0  0  0  0
  -18.4341   40.3153  -20.7824 S   0  0  0  0  0  6  0  0  0  0  0  0
  -17.8768   40.5301  -19.4156 O   0  0  0  0  0  0  0  0  0  0  0  0
  -19.9556   40.2864  -20.5791 O   0  0  0  0  0  0  0  0  0  0  0  0
  -18.0618   41.5833  -21.8509 N   0  0  0  0  0  0  0  0  0  0  0  0
  -18.7435   41.6800  -23.1031 C   0  0  0  0  0  0  0  0  0  0  0  0
  -18.7191   43.0184  -23.7461 C   0  0  0  0  0  0  0  0  0  0  0  0
  -18.3341   44.1464  -22.8177 C   0  0  0  0  0  0  0  0  0  0  0  0
  -17.1794   43.8150  -21.9737 C   0  0  0  0  0  0  0  0  0  0  0  0
  -16.2523   44.7948  -21.6816 C   0  0  0  0  0  0  0  0  0  0  0  0
  -15.1667   44.4469  -20.8779 C   0  0  0  0  0  0  0  0  0  0  0  0
  -15.0374   43.1658  -20.3997 C   0  0  0  0  0  0  0  0  0  0  0  0
  -15.9828   42.2058  -20.7098 C   0  0  0  0  0  0  0  0  0  0  0  0
  -17.0735   42.5284  -21.5086 C   0  0  0  0  0  0  0  0  0  0  0  0
  -19.1315   37.9034  -21.6906 C   0  0  0  0  0  0  0  0  0  0  0  0
  1  2  2  0
  2  3  1  0
  2  4  1  0
  4  5  2  0
  5  6  1  0
  6  7  2  0
  7  8  1  0
  8  9  1  0
  9 10  2  0
  9 11  2  0
  9 12  1  0
 12 13  1  0
 13 14  1  0
 14 15  1  0
 15 16  1  0
 16 17  2  0
 17 18  1  0
 18 19  2  0
 19 20  1  0
 20 21  2  0
  8 22  2  0
 22  4  1  0
 21 12  1  0
 21 16  1  0
M  END
$$$$
