
     RDKit          3D

 24 27  0  0  0  0  0  0  0  0999 V2000
  -14.2286   -5.0705  -37.4216 C   0  0  0  0  0  0  0  0  0  0  0  0
  -14.1256   -3.9505  -36.7317 C   0  0  0  0  0  0  0  0  0  0  0  0
  -13.1976   -3.7162  -35.5989 C   0  0  1  0  0  0  0  0  0  0  0  0
  -12.8984   -2.2613  -35.3708 C   0  0  0  0  0  0  0  0  0  0  0  0
  -12.7996   -2.0744  -33.9191 N   0  0  0  0  0  0  0  0  0  0  0  0
  -11.8501   -2.9916  -33.4068 C   0  0  0  0  0  0  0  0  0  0  0  0
  -12.2424   -4.4448  -33.5154 C   0  0  0  0  0  0  0  0  0  0  0  0
  -13.5490   -4.4443  -34.3378 C   0  0  1  0  0  0  0  0  0  0  0  0
  -14.5128   -3.6570  -33.4381 C   0  0  0  0  0  0  0  0  0  0  0  0
  -14.1363   -2.2141  -33.4115 C   0  0  1  0  0  0  0  0  0  0  0  0
  -14.2769   -1.5498  -32.0826 C   0  0  2  0  0  0  0  0  0  0  0  0
  -13.3590   -2.1075  -31.1458 O   0  0  0  0  0  0  0  0  0  0  0  0
  -15.5907   -1.6156  -31.4648 C   0  0  0  0  0  0  0  0  0  0  0  0
  -15.9482   -2.7692  -30.7674 C   0  0  0  0  0  0  0  0  0  0  0  0
  -17.1971   -2.7845  -30.1928 C   0  0  0  0  0  0  0  0  0  0  0  0
  -18.0337   -1.7345  -30.2996 N   0  0  0  0  0  0  0  0  0  0  0  0
  -17.6929   -0.6176  -30.9727 C   0  0  0  0  0  0  0  0  0  0  0  0
  -18.5466    0.4573  -31.0856 C   0  0  0  0  0  0  0  0  0  0  0  0
  -18.1913    1.5955  -31.7775 C   0  0  0  0  0  0  0  0  0  0  0  0
  -16.9618    1.7063  -32.3881 C   0  0  0  0  0  0  0  0  0  0  0  0
  -16.5917    2.8604  -33.0943 O   0  0  0  0  0  0  0  0  0  0  0  0
  -16.1812    2.7023  -34.4393 C   0  0  0  0  0  0  0  0  0  0  0  0
  -16.1107    0.6258  -32.2713 C   0  0  0  0  0  0  0  0  0  0  0  0
  -16.4527   -0.5258  -31.5788 C   0  0  0  0  0  0  0  0  0  0  0  0
  1  2  2  0
  3  2  1  6
  3  4  1  0
  4  5  1  0
  5  6  1  0
  6  7  1  0
  8  7  1  1
  8  9  1  0
 10  9  1  1
 10 11  1  0
 11 12  1  1
 11 13  1  0
 13 14  2  0
 14 15  1  0
 15 16  2  0
 16 17  1  0
 17 18  2  0
 18 19  1  0
 19 20  2  0
 20 21  1  0
 21 22  1  0
 20 23  1  0
 23 24  2  0
  8  3  1  0
 24 13  1  0
 10  5  1  0
 24 17  1  0
M  END
$$$$
