
     RDKit          3D

 23 26  0  0  0  0  0  0  0  0999 V2000
  -17.4686   36.7960  -20.6544 O   0  0  0  0  0  0  0  0  0  0  0  0
  -18.3680   36.6691  -21.5641 C   0  0  0  0  0  0  0  0  0  0  0  0
  -18.7566   37.7940  -22.3275 N   0  0  0  0  0  0  0  0  0  0  0  0
  -18.2775   39.0757  -21.9751 C   0  0  0  0  0  0  0  0  0  0  0  0
  -17.6308   39.2808  -20.7839 C   0  0  0  0  0  0  0  0  0  0  0  0
  -17.1868   40.5764  -20.5081 C   0  0  0  0  0  0  0  0  0  0  0  0
  -16.3660   40.8316  -18.9937 Cl  0  0  0  0  0  0  0  0  0  0  0  0
  -17.3895   41.6166  -21.3995 C   0  0  0  0  0  0  0  0  0  0  0  0
  -18.0301   41.4007  -22.5736 C   0  0  0  0  0  0  0  0  0  0  0  0
  -18.4782   40.1239  -22.8665 C   0  0  0  0  0  0  0  0  0  0  0  0
  -19.0768   40.1436  -24.0674 N   0  0  0  0  0  0  0  0  0  0  0  0
  -19.0408   41.3960  -24.5833 C   0  0  0  0  0  0  0  0  0  0  0  0
  -19.5137   41.9127  -25.7671 C   0  0  0  0  0  0  0  0  0  0  0  0
  -19.3283   43.2174  -26.0103 N   0  0  0  0  0  0  0  0  0  0  0  0
  -18.7038   44.0315  -25.1491 C   0  0  0  0  0  0  0  0  0  0  0  0
  -18.2267   43.5222  -23.9604 C   0  0  0  0  0  0  0  0  0  0  0  0
  -18.3835   42.1887  -23.6467 C   0  0  0  0  0  0  0  0  0  0  0  0
  -18.9456   35.3639  -21.7642 C   0  0  0  0  0  0  0  0  0  0  0  0
  -20.2453   35.2834  -22.2485 C   0  0  0  0  0  0  0  0  0  0  0  0
  -20.7824   34.0308  -22.4342 C   0  0  0  0  0  0  0  0  0  0  0  0
  -20.0818   32.8887  -22.1590 C   0  0  0  0  0  0  0  0  0  0  0  0
  -18.8260   33.0248  -21.6917 N   0  0  0  0  0  0  0  0  0  0  0  0
  -18.2433   34.2159  -21.4883 C   0  0  0  0  0  0  0  0  0  0  0  0
  1  2  2  0
  2  3  1  0
  3  4  1  0
  4  5  2  0
  5  6  1  0
  6  7  1  0
  6  8  2  0
  8  9  1  0
  9 10  2  0
 10 11  1  0
 11 12  1  0
 12 13  2  0
 13 14  1  0
 14 15  2  0
 15 16  1  0
 16 17  2  0
  2 18  1  0
 18 19  2  0
 19 20  1  0
 20 21  2  0
 21 22  1  0
 22 23  2  0
 10  4  1  0
 17 12  1  0
 23 18  1  0
 17  9  1  0
M  END
$$$$
