
     RDKit          3D

  5  4  0  0  0  0  0  0  0  0999 V2000
  -16.6648   34.9248  -22.2641 Cl  0  0  0  0  0  0  0  0  0  0  0  0
  -17.3301   36.0992  -21.1234 C   0  0  0  0  0  0  0  0  0  0  0  0
  -18.0803   37.0465  -21.6261 C   0  0  0  0  0  0  0  0  0  0  0  0
  -18.5939   38.3919  -20.6667 Cl  0  0  0  0  0  0  0  0  0  0  0  0
  -18.5669   36.9428  -23.2953 Cl  0  0  0  0  0  0  0  0  0  0  0  0
  1  2  1  0
  2  3  2  3
  3  4  1  0
  3  5  1  0
M  END
$$$$
