
     RDKit          3D

 20 22  0  0  0  0  0  0  0  0999 V2000
  -28.6411   23.9773  -31.8866 O   0  0  0  0  0  0  0  0  0  0  0  0
  -27.5626   23.3672  -32.1289 C   0  0  0  0  0  0  0  0  0  0  0  0
  -26.7742   23.7941  -33.3106 C   0  0  0  0  0  0  0  0  0  0  0  0
  -26.6668   25.2501  -33.4399 C   0  0  0  0  0  0  0  0  0  0  0  0
  -27.6367   25.9142  -34.1848 C   0  0  0  0  0  0  0  0  0  0  0  0
  -27.5927   27.2869  -34.3428 C   0  0  0  0  0  0  0  0  0  0  0  0
  -26.5672   28.0001  -33.7490 C   0  0  0  0  0  0  0  0  0  0  0  0
  -25.5793   27.3554  -32.9943 C   0  0  0  0  0  0  0  0  0  0  0  0
  -25.6625   25.9765  -32.8619 C   0  0  0  0  0  0  0  0  0  0  0  0
  -24.7284   25.3413  -32.1460 F   0  0  0  0  0  0  0  0  0  0  0  0
  -27.1805   22.3200  -31.2531 N   0  0  0  0  0  0  0  0  0  0  0  0
  -27.9331   21.9816  -30.0623 C   0  0  0  0  0  0  0  0  0  0  0  0
  -27.4454   21.7079  -28.8473 N   0  0  0  0  0  0  0  0  0  0  0  0
  -28.4657   21.4438  -28.0254 C   0  0  0  0  0  0  0  0  0  0  0  0
  -28.5253   21.1044  -26.6700 C   0  0  0  0  0  0  0  0  0  0  0  0
  -29.7230   20.8813  -26.0503 C   0  0  0  0  0  0  0  0  0  0  0  0
  -30.8806   21.0006  -26.8032 C   0  0  0  0  0  0  0  0  0  0  0  0
  -30.8487   21.3347  -28.1433 C   0  0  0  0  0  0  0  0  0  0  0  0
  -29.6239   21.5563  -28.7508 C   0  0  0  0  0  0  0  0  0  0  0  0
  -29.2712   21.8885  -30.0032 N   0  0  0  0  0  0  0  0  0  0  0  0
  1  2  2  0
  2  3  1  0
  3  4  1  0
  4  5  2  0
  5  6  1  0
  6  7  2  0
  7  8  1  0
  8  9  2  0
  9 10  1  0
  2 11  1  0
 11 12  1  0
 12 13  2  0
 13 14  1  0
 14 15  2  0
 15 16  1  0
 16 17  2  0
 17 18  1  0
 18 19  2  0
 19 20  1  0
  9  4  1  0
 20 12  1  0
 19 14  1  0
M  END
$$$$
