
     RDKit          3D

 27 30  0  0  0  0  0  0  0  0999 V2000
  -21.9185   32.7490  -23.0157 C   0  0  0  0  0  0  0  0  0  0  0  0
  -20.4396   32.6465  -22.9091 C   0  0  0  0  0  0  0  0  0  0  0  0
  -19.9130   31.7889  -23.5955 O   0  0  0  0  0  0  0  0  0  0  0  0
  -19.6083   33.4932  -22.0506 C   0  0  0  0  0  0  0  0  0  0  0  0
  -18.5492   32.7029  -21.5465 O   0  0  0  0  0  0  0  0  0  0  0  0
  -20.3522   34.1716  -20.9486 C   0  0  0  0  0  0  0  0  0  0  0  0
  -20.6844   35.5384  -21.4394 C   0  0  0  0  0  0  0  0  0  0  0  0
  -19.9359   35.7289  -22.7378 C   0  0  0  0  0  0  0  0  0  0  0  0
  -19.4231   37.1085  -22.8300 C   0  0  0  0  0  0  0  0  0  0  0  0
  -19.7622   37.8000  -24.1637 C   0  0  0  0  0  0  0  0  0  0  0  0
  -19.6003   39.3073  -23.9104 C   0  0  0  0  0  0  0  0  0  0  0  0
  -20.9824   39.8953  -23.9112 C   0  0  0  0  0  0  0  0  0  0  0  0
  -18.9872   39.4565  -22.5268 C   0  0  0  0  0  0  0  0  0  0  0  0
  -19.5687   40.1725  -21.6158 C   0  0  0  0  0  0  0  0  0  0  0  0
  -19.0448   40.3565  -20.2699 C   0  0  0  0  0  0  0  0  0  0  0  0
  -19.5963   41.0402  -19.3980 O   0  0  0  0  0  0  0  0  0  0  0  0
  -17.7933   39.6775  -19.9722 C   0  0  0  0  0  0  0  0  0  0  0  0
  -17.2090   38.9519  -20.9080 C   0  0  0  0  0  0  0  0  0  0  0  0
  -17.7008   38.7449  -22.2806 C   0  0  0  0  0  0  0  0  0  0  0  0
  -16.6366   39.3248  -23.2400 C   0  0  0  0  0  0  0  0  0  0  0  0
  -17.9469   37.2909  -22.6137 C   0  0  0  0  0  0  0  0  0  0  0  0
  -17.2476   37.0635  -23.8201 F   0  0  0  0  0  0  0  0  0  0  0  0
  -17.4020   36.3084  -21.6454 C   0  0  0  0  0  0  0  0  0  0  0  0
  -15.9923   36.4647  -21.6005 O   0  0  0  0  0  0  0  0  0  0  0  0
  -17.6357   34.9233  -22.1379 C   0  0  0  0  0  0  0  0  0  0  0  0
  -18.9340   34.6477  -22.7973 C   0  0  0  0  0  0  0  0  0  0  0  0
  -18.6720   34.2463  -24.2464 C   0  0  0  0  0  0  0  0  0  0  0  0
  1  2  1  0
  2  3  2  0
  2  4  1  0
  4  5  1  0
  4  6  1  0
  6  7  1  0
  7  8  1  0
  8  9  1  0
  9 10  1  0
 10 11  1  0
 11 12  1  0
 11 13  1  0
 13 14  2  0
 14 15  1  0
 15 16  2  0
 15 17  1  0
 17 18  2  0
 18 19  1  0
 19 20  1  0
 19 21  1  0
 21 22  1  0
 21 23  1  0
 23 24  1  0
 23 25  1  0
 25 26  1  0
 26 27  1  0
 26  4  1  0
 26  8  1  0
 21  9  1  0
 19 13  1  0
M  END
$$$$
