
     RDKit          3D

 23 26  0  0  0  0  0  0  0  0999 V2000
  -15.6952   47.7105  -22.9646 C   0  0  0  0  0  0  0  0  0  0  0  0
  -16.9240   47.1083  -23.3182 O   0  0  0  0  0  0  0  0  0  0  0  0
  -17.1436   45.7511  -23.0667 C   0  0  0  0  0  0  0  0  0  0  0  0
  -16.5420   45.1088  -21.9991 C   0  0  0  0  0  0  0  0  0  0  0  0
  -16.7724   43.7642  -21.7672 C   0  0  0  0  0  0  0  0  0  0  0  0
  -17.6075   43.0557  -22.6046 C   0  0  0  0  0  0  0  0  0  0  0  0
  -17.8519   41.6134  -22.3521 C   0  0  0  0  0  0  0  0  0  0  0  0
  -17.3655   40.8205  -21.3946 C   0  0  0  0  0  0  0  0  0  0  0  0
  -17.7375   39.5230  -21.3681 C   0  0  0  0  0  0  0  0  0  0  0  0
  -17.3593   38.5353  -20.4756 N   0  0  0  0  0  0  0  0  0  0  0  0
  -17.8007   37.3238  -20.5750 N   0  0  0  0  0  0  0  0  0  0  0  0
  -18.6455   36.8815  -21.5130 C   0  0  0  0  0  0  0  0  0  0  0  0
  -19.1492   35.5410  -21.6431 C   0  0  0  0  0  0  0  0  0  0  0  0
  -18.5040   34.5534  -20.9158 C   0  0  0  0  0  0  0  0  0  0  0  0
  -18.9093   33.2402  -20.9718 C   0  0  0  0  0  0  0  0  0  0  0  0
  -19.9802   32.8824  -21.7650 C   0  0  0  0  0  0  0  0  0  0  0  0
  -20.6060   33.8821  -22.4792 C   0  0  0  0  0  0  0  0  0  0  0  0
  -20.2130   35.1995  -22.4339 C   0  0  0  0  0  0  0  0  0  0  0  0
  -19.0564   37.8136  -22.4265 N   0  0  0  0  0  0  0  0  0  0  0  0
  -18.5928   39.0854  -22.3218 C   0  0  0  0  0  0  0  0  0  0  0  0
  -18.8781   40.5645  -23.2875 S   0  0  0  0  0  0  0  0  0  0  0  0
  -18.1922   43.7127  -23.6554 C   0  0  0  0  0  0  0  0  0  0  0  0
  -17.9802   45.0461  -23.9076 C   0  0  0  0  0  0  0  0  0  0  0  0
  1  2  1  0
  2  3  1  0
  3  4  2  0
  4  5  1  0
  5  6  2  0
  6  7  1  0
  7  8  2  0
  8  9  1  0
  9 10  2  0
 10 11  1  0
 11 12  2  0
 12 13  1  0
 13 14  2  0
 14 15  1  0
 15 16  2  0
 16 17  1  0
 17 18  2  0
 12 19  1  0
 19 20  2  0
 20 21  1  0
  6 22  1  0
 22 23  2  0
 23  3  1  0
 21  7  1  0
 20  9  1  0
 18 13  1  0
M  END
$$$$
