
     RDKit          3D

 34 39  0  0  0  0  0  0  0  0999 V2000
  -19.0914   43.9707  -22.0015 C   0  0  0  0  0  0  0  0  0  0  0  0
  -18.8594   45.4778  -22.1005 C   0  0  1  0  0  0  0  0  0  0  0  0
  -18.4271   45.8342  -23.4723 C   0  0  0  0  0  0  0  0  0  0  0  0
  -17.6618   46.8271  -23.6740 O   0  0  0  0  0  0  0  0  0  0  0  0
  -18.8271   45.1118  -24.6233 N   0  0  0  0  0  0  0  0  0  0  0  0
  -18.1030   45.0997  -25.8423 C   0  0  0  0  0  0  0  0  0  0  0  0
  -18.1734   44.0519  -26.7323 C   0  0  0  0  0  0  0  0  0  0  0  0
  -17.4345   44.1301  -27.8931 C   0  0  0  0  0  0  0  0  0  0  0  0
  -16.6450   45.2276  -28.1588 C   0  0  0  0  0  0  0  0  0  0  0  0
  -15.9127   45.3111  -29.3078 F   0  0  0  0  0  0  0  0  0  0  0  0
  -16.5874   46.2331  -27.2874 N   0  0  0  0  0  0  0  0  0  0  0  0
  -17.3044   46.1817  -26.1372 C   0  0  0  0  0  0  0  0  0  0  0  0
  -20.1249   46.1599  -21.6954 C   0  0  0  0  0  0  0  0  0  0  0  0
  -19.7712   46.8837  -20.4178 C   0  0  0  0  0  0  0  0  0  0  0  0
  -18.2783   47.1604  -20.6470 C   0  0  0  0  0  0  0  0  0  0  0  0
  -17.8373   45.9031  -21.1701 N   0  0  0  0  0  0  0  0  0  0  0  0
  -16.6480   45.2241  -20.8429 C   0  0  0  0  0  0  0  0  0  0  0  0
  -16.4990   43.8885  -21.0021 N   0  0  0  0  0  0  0  0  0  0  0  0
  -15.3649   43.2509  -20.6830 C   0  0  0  0  0  0  0  0  0  0  0  0
  -15.2047   41.8534  -20.8473 N   0  0  0  0  0  0  0  0  0  0  0  0
  -16.2068   41.0493  -21.4091 C   0  0  0  0  0  0  0  0  0  0  0  0
  -17.5776   41.2099  -21.4030 C   0  0  0  0  0  0  0  0  0  0  0  0
  -18.1483   40.1623  -22.0895 C   0  0  0  0  0  0  0  0  0  0  0  0
  -19.5948   39.8782  -22.3626 C   0  0  0  0  0  0  0  0  0  0  0  0
  -19.8206   39.1826  -23.6654 C   0  0  0  0  0  0  0  0  0  0  0  0
  -19.9403   38.3986  -22.3929 C   0  0  0  0  0  0  0  0  0  0  0  0
  -17.1211   39.3816  -22.5015 N   0  0  0  0  0  0  0  0  0  0  0  0
  -15.9836   39.9047  -22.1010 N   0  0  0  0  0  0  0  0  0  0  0  0
  -14.2719   43.9521  -20.1655 C   0  0  0  0  0  0  0  0  0  0  0  0
  -13.0123   43.5557  -19.7681 C   0  0  0  0  0  0  0  0  0  0  0  0
  -12.3636   44.7034  -19.3482 C   0  0  0  0  0  0  0  0  0  0  0  0
  -13.2581   45.7281  -19.5118 C   0  0  0  0  0  0  0  0  0  0  0  0
  -14.4391   45.2757  -20.0160 N   0  0  0  0  0  0  0  0  0  0  0  0
  -15.5749   45.8728  -20.3412 N   0  0  0  0  0  0  0  0  0  0  0  0
  2  1  1  6
  2  3  1  0
  3  4  2  0
  3  5  1  0
  5  6  1  0
  6  7  2  0
  7  8  1  0
  8  9  2  0
  9 10  1  0
  9 11  1  0
 11 12  2  0
  2 13  1  0
 13 14  1  0
 14 15  1  0
 15 16  1  0
 16 17  1  0
 17 18  1  0
 18 19  2  0
 19 20  1  0
 20 21  1  0
 21 22  1  0
 22 23  2  0
 23 24  1  0
 24 25  1  0
 25 26  1  0
 23 27  1  0
 27 28  1  0
 19 29  1  0
 29 30  2  0
 30 31  1  0
 31 32  2  0
 32 33  1  0
 33 34  1  0
 16  2  1  0
 34 17  2  0
 12  6  1  0
 28 21  2  0
 33 29  1  0
 26 24  1  0
M  END
$$$$
