
     RDKit          3D

 30 33  0  0  0  0  0  0  0  0999 V2000
  -19.5313   39.1844  -21.1567 C   0  0  0  0  0  0  0  0  0  0  0  0
  -19.0630   40.4769  -21.7878 C   0  0  1  0  0  0  0  0  0  0  0  0
  -17.9701   40.8957  -20.9849 O   0  0  0  0  0  0  0  0  0  0  0  0
  -17.5287   42.2611  -20.9269 C   0  0  0  0  0  0  0  0  0  0  0  0
  -18.3547   43.3278  -20.7740 C   0  0  0  0  0  0  0  0  0  0  0  0
  -17.7127   44.5641  -20.8134 C   0  0  0  0  0  0  0  0  0  0  0  0
  -16.3272   44.6282  -20.9568 C   0  0  0  0  0  0  0  0  0  0  0  0
  -15.5240   43.5698  -21.0840 N   0  0  0  0  0  0  0  0  0  0  0  0
  -16.1662   42.3510  -21.0705 C   0  0  0  0  0  0  0  0  0  0  0  0
  -15.2583   41.2543  -21.2004 N   0  0  0  0  0  0  0  0  0  0  0  0
  -18.3749   45.8632  -21.0951 C   0  0  0  0  0  0  0  0  0  0  0  0
  -19.3553   45.9991  -22.0877 C   0  0  0  0  0  0  0  0  0  0  0  0
  -19.7258   47.2534  -22.1697 N   0  0  0  0  0  0  0  0  0  0  0  0
  -19.0472   47.9730  -21.2819 N   0  0  0  0  0  0  0  0  0  0  0  0
  -19.1656   49.4145  -21.0711 C   0  0  0  0  0  0  0  0  0  0  0  0
  -18.2164   47.1493  -20.6149 C   0  0  0  0  0  0  0  0  0  0  0  0
  -17.3181   47.5110  -19.6130 C   0  0  0  0  0  0  0  0  0  0  0  0
  -16.4882   47.8234  -18.6874 N   0  0  0  0  0  0  0  0  0  0  0  0
  -19.7879   44.7960  -22.8969 C   0  0  0  0  0  0  0  0  0  0  0  0
  -18.6529   44.1802  -23.5743 N   0  0  0  0  0  0  0  0  0  0  0  0
  -17.6833   45.3105  -23.9650 C   0  0  0  0  0  0  0  0  0  0  0  0
  -18.2622   42.9314  -23.9629 C   0  0  0  0  0  0  0  0  0  0  0  0
  -16.9509   42.9919  -24.3862 O   0  0  0  0  0  0  0  0  0  0  0  0
  -18.6723   41.5392  -24.1247 C   0  0  0  0  0  0  0  0  0  0  0  0
  -18.7328   41.1452  -25.5034 C   0  0  0  0  0  0  0  0  0  0  0  0
  -19.0630   39.9385  -25.9986 C   0  0  0  0  0  0  0  0  0  0  0  0
  -19.3825   38.9562  -25.1024 C   0  0  0  0  0  0  0  0  0  0  0  0
  -19.7360   37.7051  -25.5494 F   0  0  0  0  0  0  0  0  0  0  0  0
  -19.3385   39.2709  -23.7815 C   0  0  0  0  0  0  0  0  0  0  0  0
  -18.9889   40.5421  -23.2310 C   0  0  0  0  0  0  0  0  0  0  0  0
  2  1  1  6
  2  3  1  0
  3  4  1  0
  4  5  1  0
  5  6  2  0
  6  7  1  0
  7  8  2  0
  8  9  1  0
  9 10  1  0
  6 11  1  0
 11 12  1  0
 12 13  2  0
 13 14  1  0
 14 15  1  0
 14 16  1  0
 16 17  1  0
 17 18  3  0
 12 19  1  0
 19 20  1  0
 20 21  1  0
 20 22  1  0
 22 23  2  0
 22 24  1  0
 24 25  2  0
 25 26  1  0
 26 27  2  0
 27 28  1  0
 27 29  1  0
 29 30  2  0
 30  2  1  0
  9  4  2  0
 16 11  2  0
 30 24  1  0
M  END
$$$$
