
     RDKit          3D

 15 17  0  0  0  0  0  0  0  0999 V2000
  -16.4560   15.4950  -33.8813 C   0  0  0  0  0  0  0  0  0  0  0  0
  -16.3413   15.1410  -32.4349 C   0  0  0  0  0  0  0  0  0  0  0  0
  -17.3470   15.4239  -31.5393 C   0  0  0  0  0  0  0  0  0  0  0  0
  -17.2411   15.0978  -30.2082 C   0  0  0  0  0  0  0  0  0  0  0  0
  -18.2017   15.3815  -29.4179 O   0  0  0  0  0  0  0  0  0  0  0  0
  -16.1296   14.4800  -29.7300 N   0  0  0  0  0  0  0  0  0  0  0  0
  -15.1398   14.1939  -30.5730 C   0  0  0  0  0  0  0  0  0  0  0  0
  -13.9921   13.5669  -30.1309 C   0  0  0  0  0  0  0  0  0  0  0  0
  -12.9587   13.2637  -30.9927 C   0  0  0  0  0  0  0  0  0  0  0  0
  -13.0625   13.5892  -32.3272 C   0  0  0  0  0  0  0  0  0  0  0  0
  -14.1980   14.2149  -32.7896 C   0  0  0  0  0  0  0  0  0  0  0  0
  -15.2106   14.5093  -31.9325 C   0  0  0  0  0  0  0  0  0  0  0  0
  -13.7808   13.1787  -28.7126 C   0  0  0  0  0  0  0  0  0  0  0  0
  -14.6907   13.9540  -27.7861 C   0  0  0  0  0  0  0  0  0  0  0  0
  -16.0537   14.1518  -28.3469 C   0  0  0  0  0  0  0  0  0  0  0  0
  1  2  1  0
  2  3  2  0
  3  4  1  0
  4  5  2  0
  4  6  1  0
  6  7  1  0
  7  8  2  0
  8  9  1  0
  9 10  2  0
 10 11  1  0
 11 12  2  0
  8 13  1  0
 13 14  1  0
 14 15  1  0
 12  2  1  0
 15  6  1  0
 12  7  1  0
M  END
$$$$
