
     RDKit          3D

 32 34  0  0  0  0  0  0  0  0999 V2000
  -25.0550   16.6165  -33.8454 C   0  0  0  0  0  0  0  0  0  0  0  0
  -23.5465   16.9258  -33.9586 C   0  0  0  0  0  0  0  0  0  0  0  0
  -23.2350   16.4779  -35.4208 C   0  0  0  0  0  0  0  0  0  0  0  0
  -23.3414   18.3760  -33.9271 C   0  0  0  0  0  0  0  0  0  0  0  0
  -22.8796   16.0571  -33.0074 C   0  0  0  0  0  0  0  0  0  0  0  0
  -21.8998   15.2004  -33.5435 C   0  0  0  0  0  0  0  0  0  0  0  0
  -21.2471   14.3104  -32.7277 C   0  0  0  0  0  0  0  0  0  0  0  0
  -21.5368   14.2410  -31.3825 C   0  0  0  0  0  0  0  0  0  0  0  0
  -22.4840   15.0672  -30.8511 C   0  0  0  0  0  0  0  0  0  0  0  0
  -23.1806   16.0060  -31.6763 C   0  0  0  0  0  0  0  0  0  0  0  0
  -24.1103   16.7844  -31.0850 O   0  0  0  0  0  0  0  0  0  0  0  0
  -24.9494   16.5811  -30.0404 C   0  0  0  0  0  0  0  0  0  0  0  0
  -25.5624   15.4309  -29.7502 N   0  0  0  0  0  0  0  0  0  0  0  0
  -26.3929   15.2140  -28.7236 C   0  0  0  0  0  0  0  0  0  0  0  0
  -26.6730   16.2437  -27.8567 C   0  0  0  0  0  0  0  0  0  0  0  0
  -26.0547   17.4701  -28.1183 C   0  0  0  0  0  0  0  0  0  0  0  0
  -25.2099   17.6604  -29.1768 C   0  0  0  0  0  0  0  0  0  0  0  0
  -24.5660   18.8782  -29.4769 N   0  0  0  0  0  0  0  0  0  0  0  0
  -25.1399   20.0154  -30.1240 C   0  0  0  0  0  0  0  0  0  0  0  0
  -26.2963   20.3214  -29.8261 O   0  0  0  0  0  0  0  0  0  0  0  0
  -24.4289   20.7769  -31.0730 N   0  0  0  0  0  0  0  0  0  0  0  0
  -24.6541   22.1346  -31.3701 C   0  0  0  0  0  0  0  0  0  0  0  0
  -23.6138   22.8799  -31.9411 C   0  0  0  0  0  0  0  0  0  0  0  0
  -23.7229   24.2007  -32.2686 C   0  0  0  0  0  0  0  0  0  0  0  0
  -24.8959   24.8659  -32.0417 C   0  0  0  0  0  0  0  0  0  0  0  0
  -25.0794   26.2126  -32.3502 O   0  0  0  0  0  0  0  0  0  0  0  0
  -25.6848   26.5547  -33.5614 C   0  0  0  0  0  0  0  0  0  0  0  0
  -26.9704   26.0586  -33.6906 F   0  0  0  0  0  0  0  0  0  0  0  0
  -25.7639   27.9285  -33.6916 F   0  0  0  0  0  0  0  0  0  0  0  0
  -24.9492   26.0579  -34.6188 F   0  0  0  0  0  0  0  0  0  0  0  0
  -25.9444   24.1746  -31.4827 C   0  0  0  0  0  0  0  0  0  0  0  0
  -25.8088   22.8220  -31.1557 C   0  0  0  0  0  0  0  0  0  0  0  0
  1  2  1  0
  2  3  1  0
  2  4  1  0
  2  5  1  0
  5  6  2  0
  6  7  1  0
  7  8  2  0
  8  9  1  0
  9 10  2  0
 10 11  1  0
 11 12  1  0
 12 13  2  0
 13 14  1  0
 14 15  2  0
 15 16  1  0
 16 17  2  0
 17 18  1  0
 18 19  1  0
 19 20  2  0
 19 21  1  0
 21 22  1  0
 22 23  2  0
 23 24  1  0
 24 25  2  0
 25 26  1  0
 26 27  1  0
 27 28  1  0
 27 29  1  0
 27 30  1  0
 25 31  1  0
 31 32  2  0
 10  5  1  0
 17 12  1  0
 32 22  1  0
M  END
$$$$
