
     RDKit          3D

 23 26  0  0  0  0  0  0  0  0999 V2000
  -14.4936   32.8111  -24.2526 C   0  0  0  0  0  0  0  0  0  0  0  0
  -14.8263   32.8225  -22.7798 C   0  0  0  0  0  0  0  0  0  0  0  0
  -13.6861   33.3813  -21.9909 C   0  0  0  0  0  0  0  0  0  0  0  0
  -16.0526   33.6091  -22.6214 N   0  0  0  0  0  0  0  0  0  0  0  0
  -16.3057   34.8216  -23.0608 N   0  0  0  0  0  0  0  0  0  0  0  0
  -17.5649   35.2010  -22.7066 C   0  0  0  0  0  0  0  0  0  0  0  0
  -18.2023   36.4733  -22.9901 C   0  0  0  0  0  0  0  0  0  0  0  0
  -19.4761   36.4368  -23.5187 C   0  0  0  0  0  0  0  0  0  0  0  0
  -20.1685   37.6107  -23.7885 C   0  0  0  0  0  0  0  0  0  0  0  0
  -19.5979   38.8463  -23.5339 C   0  0  0  0  0  0  0  0  0  0  0  0
  -19.9795   40.0952  -23.6742 O   0  0  0  0  0  0  0  0  0  0  0  0
  -19.0337   40.9175  -23.2698 C   0  0  0  0  0  0  0  0  0  0  0  0
  -19.0507   42.3304  -23.2564 N   0  0  0  0  0  0  0  0  0  0  0  0
  -17.9977   40.1335  -22.8512 N   0  0  0  0  0  0  0  0  0  0  0  0
  -18.3251   38.8422  -23.0058 C   0  0  0  0  0  0  0  0  0  0  0  0
  -17.6168   37.6765  -22.7288 C   0  0  0  0  0  0  0  0  0  0  0  0
  -18.0829   34.1320  -22.0083 C   0  0  0  0  0  0  0  0  0  0  0  0
  -19.3086   33.9329  -21.3931 C   0  0  0  0  0  0  0  0  0  0  0  0
  -20.2903   34.9536  -21.4088 N   0  0  0  0  0  0  0  0  0  0  0  0
  -19.5141   32.7576  -20.7697 N   0  0  0  0  0  0  0  0  0  0  0  0
  -18.5701   31.8057  -20.7388 C   0  0  0  0  0  0  0  0  0  0  0  0
  -17.3711   31.9650  -21.3225 N   0  0  0  0  0  0  0  0  0  0  0  0
  -17.1156   33.1191  -21.9573 C   0  0  0  0  0  0  0  0  0  0  0  0
  1  2  1  0
  2  3  1  0
  2  4  1  0
  4  5  1  0
  5  6  2  0
  6  7  1  0
  7  8  2  0
  8  9  1  0
  9 10  2  0
 10 11  1  0
 11 12  1  0
 12 13  1  0
 12 14  2  0
 14 15  1  0
 15 16  2  0
  6 17  1  0
 17 18  2  0
 18 19  1  0
 18 20  1  0
 20 21  2  0
 21 22  1  0
 22 23  2  0
 23  4  1  0
 16  7  1  0
 23 17  1  0
 15 10  1  0
M  END
$$$$
