
     RDKit          3D

 26 28  0  0  0  0  0  0  0  0999 V2000
  -16.4250   38.8133  -22.2465 C   0  0  0  0  0  0  0  0  0  0  0  0
  -16.5177   37.4218  -21.8811 N   0  0  0  0  0  0  0  0  0  0  0  0
  -17.5652   36.6115  -22.3526 C   0  0  0  0  0  0  0  0  0  0  0  0
  -18.5095   37.0497  -23.2088 N   0  0  0  0  0  0  0  0  0  0  0  0
  -19.5024   36.2835  -23.6704 C   0  0  0  0  0  0  0  0  0  0  0  0
  -20.5074   36.7722  -24.5743 N   0  0  0  0  0  0  0  0  0  0  0  0
  -20.4841   38.1072  -25.0545 C   0  0  0  0  0  0  0  0  0  0  0  0
  -20.0313   39.1577  -24.3001 C   0  0  0  0  0  0  0  0  0  0  0  0
  -20.0168   40.4540  -24.7598 C   0  0  0  0  0  0  0  0  0  0  0  0
  -20.4821   40.7359  -26.0593 C   0  0  0  0  0  0  0  0  0  0  0  0
  -20.4308   42.1072  -26.5153 C   0  0  0  0  0  0  0  0  0  0  0  0
  -19.5305   42.4045  -27.4117 O   0  0  0  0  0  0  0  0  0  0  0  0
  -21.2279   43.1662  -26.1150 N   0  0  0  0  0  0  0  0  0  0  0  0
  -22.3771   42.9260  -25.2399 C   0  0  0  0  0  0  0  0  0  0  0  0
  -22.5433   44.0461  -24.2349 C   0  0  0  0  0  0  0  0  0  0  0  0
  -22.4572   45.2930  -24.8236 O   0  0  0  0  0  0  0  0  0  0  0  0
  -22.3439   45.2513  -26.2108 C   0  0  0  0  0  0  0  0  0  0  0  0
  -21.0084   44.5236  -26.4988 C   0  0  0  0  0  0  0  0  0  0  0  0
  -20.9296   39.6767  -26.7963 C   0  0  0  0  0  0  0  0  0  0  0  0
  -20.9544   38.3601  -26.3530 C   0  0  0  0  0  0  0  0  0  0  0  0
  -21.4005   37.2883  -27.0838 O   0  0  0  0  0  0  0  0  0  0  0  0
  -22.5191   37.4498  -27.9254 C   0  0  0  0  0  0  0  0  0  0  0  0
  -19.5484   34.9892  -23.2430 N   0  0  0  0  0  0  0  0  0  0  0  0
  -18.6244   34.5003  -22.3821 C   0  0  0  0  0  0  0  0  0  0  0  0
  -17.6121   35.2934  -21.9159 C   0  0  0  0  0  0  0  0  0  0  0  0
  -16.3915   34.6859  -20.7894 Cl  0  0  0  0  0  0  0  0  0  0  0  0
  1  2  1  0
  2  3  1  0
  3  4  2  0
  4  5  1  0
  5  6  1  0
  6  7  1  0
  7  8  2  0
  8  9  1  0
  9 10  2  0
 10 11  1  0
 11 12  2  0
 11 13  1  0
 13 14  1  0
 14 15  1  0
 15 16  1  0
 16 17  1  0
 17 18  1  0
 10 19  1  0
 19 20  2  0
 20 21  1  0
 21 22  1  0
  5 23  2  0
 23 24  1  0
 24 25  2  0
 25 26  1  0
 25  3  1  0
 20  7  1  0
 18 13  1  0
M  END
$$$$
