
     RDKit          3D

 14 15  0  0  0  0  0  0  0  0999 V2000
  -30.7719   14.7215  -25.3310 O   0  0  0  0  0  0  0  0  0  0  0  0
  -29.6195   15.2501  -25.2876 N   0  0  0  0  0  4  0  0  0  0  0  0
  -28.6593   14.6587  -24.5575 O   0  0  0  0  0  1  0  0  0  0  0  0
  -29.4360   16.4332  -26.0214 C   0  0  0  0  0  0  0  0  0  0  0  0
  -28.2986   17.2176  -25.7180 C   0  0  0  0  0  0  0  0  0  0  0  0
  -28.0903   18.3766  -26.4074 C   0  0  0  0  0  0  0  0  0  0  0  0
  -28.9780   18.7641  -27.3780 C   0  0  0  0  0  0  0  0  0  0  0  0
  -28.7405   19.9387  -28.0579 O   0  0  0  0  0  0  0  0  0  0  0  0
  -30.0988   18.0037  -27.6847 C   0  0  0  0  0  0  0  0  0  0  0  0
  -30.9601   18.4114  -28.6316 N   0  0  0  0  0  0  0  0  0  0  0  0
  -32.0769   17.6982  -28.9537 C   0  0  0  0  0  0  0  0  0  0  0  0
  -32.3566   16.5224  -28.3046 C   0  0  0  0  0  0  0  0  0  0  0  0
  -31.4650   16.1099  -27.3305 C   0  0  0  0  0  0  0  0  0  0  0  0
  -30.3233   16.8146  -26.9856 C   0  0  0  0  0  0  0  0  0  0  0  0
  1  2  2  0
  2  3  1  0
  2  4  1  0
  4  5  2  0
  5  6  1  0
  6  7  2  0
  7  8  1  0
  7  9  1  0
  9 10  2  0
 10 11  1  0
 11 12  2  0
 12 13  1  0
 13 14  2  0
 14  4  1  0
 14  9  1  0
M  CHG  2   2   1   3  -1
M  END
$$$$
