
     RDKit          3D

 34 38  0  0  0  0  0  0  0  0999 V2000
  -12.7512   -5.0707  -29.4442 N   0  0  0  0  0  0  0  0  0  0  0  0
  -14.1321   -5.4999  -29.3462 C   0  0  0  0  0  0  0  0  0  0  0  0
  -14.9172   -4.5506  -28.4590 C   0  0  0  0  0  0  0  0  0  0  0  0
  -15.4931   -3.5791  -28.9759 O   0  0  0  0  0  0  0  0  0  0  0  0
  -14.9846   -4.7790  -27.0662 N   0  0  0  0  0  0  0  0  0  0  0  0
  -15.9394   -4.2416  -26.1766 C   0  0  0  0  0  0  0  0  0  0  0  0
  -15.9641   -4.3923  -24.8119 C   0  0  0  0  0  0  0  0  0  0  0  0
  -16.9635   -3.8104  -24.0397 C   0  0  0  0  0  0  0  0  0  0  0  0
  -17.9660   -3.0636  -24.5947 C   0  0  0  0  0  0  0  0  0  0  0  0
  -18.9941   -2.4667  -23.7890 N   0  0  0  0  0  0  0  0  0  0  0  0
  -20.3035   -2.6352  -23.8389 N   0  0  0  0  0  0  0  0  0  0  0  0
  -20.9038   -1.8829  -22.9006 C   0  0  0  0  0  0  0  0  0  0  0  0
  -22.3557   -1.7896  -22.6314 C   0  0  0  0  0  0  0  0  0  0  0  0
  -22.7916   -0.4890  -22.8945 F   0  0  0  0  0  0  0  0  0  0  0  0
  -22.6666   -2.0468  -21.3158 F   0  0  0  0  0  0  0  0  0  0  0  0
  -23.0947   -2.6121  -23.4579 F   0  0  0  0  0  0  0  0  0  0  0  0
  -19.9285   -1.1964  -22.2134 C   0  0  0  0  0  0  0  0  0  0  0  0
  -18.7239   -1.5925  -22.8061 C   0  0  0  0  0  0  0  0  0  0  0  0
  -17.4108   -1.1113  -22.3946 C   0  0  0  0  0  0  0  0  0  0  0  0
  -16.5433   -0.5075  -23.2601 C   0  0  0  0  0  0  0  0  0  0  0  0
  -15.2993   -0.0590  -22.8414 C   0  0  0  0  0  0  0  0  0  0  0  0
  -14.8814   -0.2013  -21.5353 C   0  0  0  0  0  0  0  0  0  0  0  0
  -15.7651   -0.8156  -20.6564 C   0  0  0  0  0  0  0  0  0  0  0  0
  -15.3907   -0.9825  -19.3296 C   0  0  0  0  0  0  0  0  0  0  0  0
  -14.1572   -0.5320  -18.9379 C   0  0  0  0  0  0  0  0  0  0  0  0
  -13.2748    0.0749  -19.7893 C   0  0  0  0  0  0  0  0  0  0  0  0
  -12.0343    0.5209  -19.3669 C   0  0  0  0  0  0  0  0  0  0  0  0
  -11.1777    1.1232  -20.2457 C   0  0  0  0  0  0  0  0  0  0  0  0
  -11.5482    1.2895  -21.5631 C   0  0  0  0  0  0  0  0  0  0  0  0
  -12.7755    0.8562  -22.0126 C   0  0  0  0  0  0  0  0  0  0  0  0
  -13.6343    0.2515  -21.1281 C   0  0  0  0  0  0  0  0  0  0  0  0
  -16.9987   -1.2562  -21.0883 C   0  0  0  0  0  0  0  0  0  0  0  0
  -17.9455   -2.9097  -25.9617 C   0  0  0  0  0  0  0  0  0  0  0  0
  -16.9670   -3.4756  -26.7489 C   0  0  0  0  0  0  0  0  0  0  0  0
  1  2  1  0
  2  3  1  0
  3  4  2  0
  3  5  1  0
  5  6  1  0
  6  7  2  0
  7  8  1  0
  8  9  2  0
  9 10  1  0
 10 11  1  0
 11 12  2  0
 12 13  1  0
 13 14  1  0
 13 15  1  0
 13 16  1  0
 12 17  1  0
 17 18  2  0
 18 19  1  0
 19 20  2  0
 20 21  1  0
 21 22  2  0
 22 23  1  0
 23 24  1  0
 24 25  2  0
 25 26  1  0
 26 27  2  0
 27 28  1  0
 28 29  2  0
 29 30  1  0
 30 31  2  0
 23 32  2  0
  9 33  1  0
 33 34  2  0
 34  6  1  0
 18 10  1  0
 32 19  1  0
 31 22  1  0
 31 26  1  0
M  END
$$$$
