
     RDKit          3D

 23 25  0  0  0  0  0  0  0  0999 V2000
  -18.8340   39.1491  -22.6226 Br  0  0  0  0  0  0  0  0  0  0  0  0
  -19.2262   45.3780  -23.1043 C   0  0  0  0  0  0  0  0  0  0  0  0
  -19.1221   44.0850  -22.5090 N   0  0  0  0  0  0  0  0  0  0  0  0
  -17.8097   43.5164  -22.7418 C   0  0  1  0  0  0  0  0  0  0  0  0
  -17.5539   42.2498  -22.0163 C   0  0  0  0  0  0  0  0  0  0  0  0
  -18.6954   41.2965  -21.9584 C   0  0  2  0  0  0  0  0  0  0  0  0
  -18.5367   40.1842  -22.8206 O   0  0  0  0  0  0  0  0  0  0  0  0
  -18.4845   38.8950  -22.3148 C   0  0  0  0  0  0  0  0  0  0  0  0
  -18.5861   38.7911  -21.0655 O   0  0  0  0  0  0  0  0  0  0  0  0
  -18.3184   37.7167  -23.2047 C   0  0  2  0  0  0  0  0  0  0  0  0
  -19.4488   37.6140  -24.2095 C   0  0  0  0  0  0  0  0  0  0  0  0
  -20.6792   37.4871  -23.5906 O   0  0  0  0  0  0  0  0  0  0  0  0
  -18.2942   36.4791  -22.4255 C   0  0  0  0  0  0  0  0  0  0  0  0
  -17.2132   35.6362  -22.5628 C   0  0  0  0  0  0  0  0  0  0  0  0
  -17.1125   34.4416  -21.8579 C   0  0  0  0  0  0  0  0  0  0  0  0
  -18.1349   34.1048  -20.9991 C   0  0  0  0  0  0  0  0  0  0  0  0
  -19.2216   34.9657  -20.8698 C   0  0  0  0  0  0  0  0  0  0  0  0
  -19.3212   36.1468  -21.5666 C   0  0  0  0  0  0  0  0  0  0  0  0
  -20.0343   41.9075  -22.2676 C   0  0  0  0  0  0  0  0  0  0  0  0
  -19.9635   43.0850  -23.1856 C   0  0  2  0  0  0  0  0  0  0  0  0
  -19.2283   42.8024  -24.4639 C   0  0  1  0  0  0  0  0  0  0  0  0
  -18.6617   43.9082  -25.0631 O   0  0  0  0  0  0  0  0  0  0  0  0
  -17.7982   43.2454  -24.2281 C   0  0  1  0  0  0  0  0  0  0  0  0
  2  3  1  0
  3  4  1  0
  4  5  1  1
  5  6  1  0
  6  7  1  6
  7  8  1  0
  8  9  2  0
  8 10  1  0
 10 11  1  6
 11 12  1  0
 10 13  1  0
 13 14  2  0
 14 15  1  0
 15 16  2  0
 16 17  1  0
 17 18  2  0
  6 19  1  0
 20 19  1  1
 20 21  1  0
 21 22  1  6
 23 22  1  6
 20  3  1  0
 23 21  1  0
 23  4  1  0
 18 13  1  0
M  END
$$$$
