
     RDKit          3D

 28 29  0  0  0  0  0  0  0  0999 V2000
  -16.1430   42.1714  -21.6954 C   0  0  0  0  0  0  0  0  0  0  0  0
  -17.1491   41.4694  -22.6189 C   0  0  1  0  0  0  0  0  0  0  0  0
  -17.6135   40.2175  -21.9889 C   0  0  2  0  0  0  0  0  0  0  0  0
  -17.6821   39.0315  -22.8294 N   0  0  0  0  0  0  0  0  0  0  0  0
  -17.5129   37.7242  -22.3601 C   0  0  0  0  0  0  0  0  0  0  0  0
  -16.8889   37.7283  -21.2055 O   0  0  0  0  0  0  0  0  0  0  0  0
  -17.8602   36.4533  -22.8518 C   0  0  0  0  0  0  0  0  0  0  0  0
  -18.1058   36.3675  -24.1553 N   0  0  0  0  0  0  0  0  0  0  0  0
  -19.3555   36.3384  -24.6757 O   0  0  0  0  0  0  0  0  0  0  0  0
  -19.6629   36.8856  -25.9274 C   0  0  0  0  0  0  0  0  0  0  0  0
  -18.4927   37.7658  -26.3245 C   0  0  0  0  0  0  0  0  0  0  0  0
  -19.8632   35.7857  -26.9803 C   0  0  0  0  0  0  0  0  0  0  0  0
  -20.9241   37.6255  -25.8499 C   0  0  0  0  0  0  0  0  0  0  0  0
  -21.1298   38.7301  -26.4206 O   0  0  0  0  0  0  0  0  0  0  0  0
  -21.9767   37.1059  -25.1110 O   0  0  0  0  0  0  0  0  0  0  0  0
  -18.0038   35.1516  -22.1553 C   0  0  0  0  0  0  0  0  0  0  0  0
  -17.3920   34.9072  -20.9451 C   0  0  0  0  0  0  0  0  0  0  0  0
  -17.9263   33.1647  -20.6007 S   0  0  0  0  0  0  0  0  0  0  0  0
  -18.9096   33.0828  -22.2059 C   0  0  0  0  0  0  0  0  0  0  0  0
  -19.6002   31.8086  -22.4634 N   0  0  0  0  0  0  0  0  0  0  0  0
  -18.7128   34.1183  -22.6146 N   0  0  0  0  0  0  0  0  0  0  0  0
  -18.9505   40.8943  -21.9710 C   0  0  0  0  0  0  0  0  0  0  0  0
  -20.0947   40.4609  -21.6141 O   0  0  0  0  0  0  0  0  0  0  0  0
  -18.4419   42.1003  -22.4714 N   0  0  0  0  0  0  0  0  0  0  0  0
  -19.0518   43.6717  -22.7902 S   0  0  0  0  0  6  0  0  0  0  0  0
  -20.1663   43.6580  -23.8042 O   0  0  0  0  0  0  0  0  0  0  0  0
  -17.9532   44.5795  -23.3006 O   0  0  0  0  0  0  0  0  0  0  0  0
  -19.5967   44.3328  -21.3380 O   0  0  0  0  0  0  0  0  0  0  0  0
  2  1  1  1
  2  3  1  0
  3  4  1  6
  4  5  1  0
  5  6  2  0
  5  7  1  0
  7  8  2  0
  8  9  1  0
  9 10  1  0
 10 11  1  0
 10 12  1  0
 10 13  1  0
 13 14  2  0
 13 15  1  0
  7 16  1  0
 16 17  2  0
 17 18  1  0
 18 19  1  0
 19 20  1  0
 19 21  2  0
  3 22  1  0
 22 23  2  0
 22 24  1  0
 24 25  1  0
 25 26  2  0
 25 27  2  0
 25 28  1  0
 24  2  1  0
 21 16  1  0
M  END
$$$$
