
     RDKit          3D

 18 19  0  0  0  0  0  0  0  0999 V2000
  -32.9781   17.6211  -28.7510 C   0  0  0  0  0  0  0  0  0  0  0  0
  -31.5154   17.6293  -29.2157 C   0  0  0  0  0  0  0  0  0  0  0  0
  -30.8479   18.6619  -28.3951 C   0  0  0  0  0  0  0  0  0  0  0  0
  -30.5259   19.9046  -28.9364 C   0  0  0  0  0  0  0  0  0  0  0  0
  -29.9187   20.8234  -28.1653 N   0  0  0  0  0  0  0  0  0  0  0  0
  -29.5900   22.1096  -28.7404 C   0  0  1  0  0  0  0  0  0  0  0  0
  -28.2652   21.9240  -29.4648 C   0  0  0  0  0  0  0  0  0  0  0  0
  -28.6938   22.1721  -30.9023 C   0  0  2  0  0  0  0  0  0  0  0  0
  -27.6767   22.6371  -31.7032 O   0  0  0  0  0  0  0  0  0  0  0  0
  -29.7847   23.2141  -30.6553 C   0  0  1  0  0  0  0  0  0  0  0  0
  -30.6180   23.4686  -31.8766 C   0  0  0  0  0  0  0  0  0  0  0  0
  -31.1377   22.2511  -32.3002 O   0  0  0  0  0  0  0  0  0  0  0  0
  -30.5080   22.5567  -29.6518 O   0  0  0  0  0  0  0  0  0  0  0  0
  -29.6257   20.5514  -26.8936 C   0  0  0  0  0  0  0  0  0  0  0  0
  -29.0603   21.4264  -26.2001 O   0  0  0  0  0  0  0  0  0  0  0  0
  -29.9234   19.3480  -26.3243 N   0  0  0  0  0  0  0  0  0  0  0  0
  -30.5342   18.4061  -27.0776 C   0  0  0  0  0  0  0  0  0  0  0  0
  -30.8442   17.2673  -26.6288 O   0  0  0  0  0  0  0  0  0  0  0  0
  1  2  1  0
  2  3  1  0
  3  4  2  0
  4  5  1  0
  6  5  1  6
  6  7  1  0
  7  8  1  0
  8  9  1  6
  8 10  1  0
 10 11  1  6
 11 12  1  0
 10 13  1  0
  5 14  1  0
 14 15  2  0
 14 16  1  0
 16 17  1  0
 17 18  2  0
 17  3  1  0
 13  6  1  0
M  END
$$$$
