
     RDKit          3D

 44 49  0  0  0  0  0  0  0  0999 V2000
  -19.9292   36.8249  -23.2825 C   0  0  0  0  0  0  0  0  0  0  0  0
  -18.7379   37.7008  -23.6361 C   0  0  2  0  0  0  0  0  0  0  0  0
  -17.5297   37.1864  -23.0489 N   0  0  0  0  0  0  0  0  0  0  0  0
  -17.5834   36.2304  -21.9763 C   0  0  0  0  0  0  0  0  0  0  0  0
  -18.0278   36.6118  -20.8561 O   0  0  0  0  0  0  0  0  0  0  0  0
  -17.1190   34.8446  -22.2162 C   0  0  0  0  0  0  0  0  0  0  0  0
  -15.6333   34.7009  -22.2861 C   0  0  0  0  0  0  0  0  0  0  0  0
  -17.5768   34.0916  -21.1250 F   0  0  0  0  0  0  0  0  0  0  0  0
  -17.7541   34.3136  -23.3189 F   0  0  0  0  0  0  0  0  0  0  0  0
  -18.9506   39.1222  -23.2093 C   0  0  2  0  0  0  0  0  0  0  0  0
  -18.5866   40.0572  -24.1785 O   0  0  0  0  0  0  0  0  0  0  0  0
  -19.1329   41.2753  -24.4418 C   0  0  0  0  0  0  0  0  0  0  0  0
  -20.1566   41.3275  -25.3983 C   0  0  0  0  0  0  0  0  0  0  0  0
  -20.7667   42.5176  -25.7282 C   0  0  0  0  0  0  0  0  0  0  0  0
  -20.4024   43.7187  -25.1336 C   0  0  0  0  0  0  0  0  0  0  0  0
  -19.3961   43.6773  -24.1917 C   0  0  0  0  0  0  0  0  0  0  0  0
  -19.2495   44.9824  -23.7800 C   0  0  0  0  0  0  0  0  0  0  0  0
  -20.1218   45.7568  -24.4421 N   0  0  0  0  0  0  0  0  0  0  0  0
  -20.8404   44.9858  -25.2820 N   0  0  0  0  0  0  0  0  0  0  0  0
  -21.8624   45.4651  -26.1516 C   0  0  0  0  0  0  0  0  0  0  0  0
  -22.7013   46.5132  -25.7441 C   0  0  0  0  0  0  0  0  0  0  0  0
  -23.6938   46.9783  -26.5768 C   0  0  0  0  0  0  0  0  0  0  0  0
  -23.9030   46.4431  -27.8254 C   0  0  0  0  0  0  0  0  0  0  0  0
  -23.0857   45.4161  -28.2330 C   0  0  0  0  0  0  0  0  0  0  0  0
  -23.2353   44.7955  -29.5315 C   0  0  0  0  0  0  0  0  0  0  0  0
  -22.4910   43.8164  -29.8223 O   0  0  0  0  0  0  0  0  0  0  0  0
  -24.1962   45.2831  -30.4423 N   0  0  0  0  0  0  0  0  0  0  0  0
  -24.4866   44.4747  -31.6276 C   0  0  2  0  0  0  0  0  0  0  0  0
  -23.4145   44.7292  -32.6732 C   0  0  0  0  0  0  0  0  0  0  0  0
  -23.9920   45.9016  -33.4280 C   0  0  0  0  0  0  0  0  0  0  0  0
  -25.3432   45.9070  -33.2694 O   0  0  0  0  0  0  0  0  0  0  0  0
  -25.7084   45.0082  -32.3107 C   0  0  0  0  0  0  0  0  0  0  0  0
  -22.0819   44.9420  -27.3990 C   0  0  0  0  0  0  0  0  0  0  0  0
  -18.7847   42.4730  -23.8642 C   0  0  0  0  0  0  0  0  0  0  0  0
  -18.2616   39.3781  -21.9360 C   0  0  0  0  0  0  0  0  0  0  0  0
  -18.6148   38.7781  -20.7490 C   0  0  0  0  0  0  0  0  0  0  0  0
  -17.9536   39.0373  -19.5634 C   0  0  0  0  0  0  0  0  0  0  0  0
  -16.8953   39.9369  -19.5793 C   0  0  0  0  0  0  0  0  0  0  0  0
  -16.5205   40.5499  -20.7460 C   0  0  0  0  0  0  0  0  0  0  0  0
  -17.1907   40.2769  -21.9063 C   0  0  0  0  0  0  0  0  0  0  0  0
  -15.4647   41.4393  -20.7298 O   0  0  0  0  0  0  0  0  0  0  0  0
  -14.6855   41.7593  -19.6175 C   0  0  0  0  0  0  0  0  0  0  0  0
  -14.9129   40.8338  -18.4479 C   0  0  0  0  0  0  0  0  0  0  0  0
  -16.1813   40.2502  -18.4305 O   0  0  0  0  0  0  0  0  0  0  0  0
  2  1  1  1
  2  3  1  0
  3  4  1  0
  4  5  2  0
  4  6  1  0
  6  7  1  0
  6  8  1  0
  6  9  1  0
  2 10  1  0
 10 11  1  6
 11 12  1  0
 12 13  2  0
 13 14  1  0
 14 15  2  0
 15 16  1  0
 16 17  1  0
 17 18  2  0
 18 19  1  0
 19 20  1  0
 20 21  2  0
 21 22  1  0
 22 23  2  0
 23 24  1  0
 24 25  1  0
 25 26  2  0
 25 27  1  0
 28 27  1  1
 28 29  1  0
 29 30  1  0
 30 31  1  0
 31 32  1  0
 24 33  2  0
 16 34  2  0
 10 35  1  0
 35 36  2  0
 36 37  1  0
 37 38  2  0
 38 39  1  0
 39 40  2  0
 39 41  1  0
 41 42  1  0
 42 43  1  0
 43 44  1  0
 34 12  1  0
 40 35  1  0
 19 15  1  0
 33 20  1  0
 44 38  1  0
 32 28  1  0
M  END
$$$$
