
     RDKit          3D

 28 32  0  0  0  0  0  0  0  0999 V2000
  -18.1466   20.6174  -46.2769 C   0  0  0  0  0  0  0  0  0  0  0  0
  -17.1621   20.5005  -45.1680 C   0  0  1  0  0  0  0  0  0  0  0  0
  -15.8996   19.7995  -45.6240 C   0  0  0  0  0  0  0  0  0  0  0  0
  -15.1145   19.5727  -44.4445 N   0  0  0  0  0  0  0  0  0  0  0  0
  -14.5245   18.3106  -44.2357 C   0  0  0  0  0  0  0  0  0  0  0  0
  -13.9448   17.8951  -43.0518 C   0  0  0  0  0  0  0  0  0  0  0  0
  -13.3733   16.6422  -42.8793 C   0  0  0  0  0  0  0  0  0  0  0  0
  -12.7809   16.2718  -41.6053 C   0  0  0  0  0  0  0  0  0  0  0  0
  -12.9337   15.1432  -40.8971 N   0  0  0  0  0  0  0  0  0  0  0  0
  -12.2265   15.1815  -39.7833 N   0  0  0  0  0  0  0  0  0  0  0  0
  -11.5810   16.3496  -39.7264 C   0  0  0  0  0  0  0  0  0  0  0  0
  -10.7235   16.9217  -38.8210 C   0  0  0  0  0  0  0  0  0  0  0  0
  -10.1855   18.1805  -39.0152 C   0  0  0  0  0  0  0  0  0  0  0  0
  -10.5112   18.8953  -40.1484 C   0  0  0  0  0  0  0  0  0  0  0  0
   -9.9669   20.1403  -40.3207 O   0  0  0  0  0  0  0  0  0  0  0  0
   -9.2078   20.5697  -41.4088 C   0  0  0  0  0  0  0  0  0  0  0  0
   -9.6282   21.9331  -41.9549 C   0  0  0  0  0  0  0  0  0  0  0  0
   -8.6804   19.5893  -42.3907 C   0  0  0  0  0  0  0  0  0  0  0  0
   -7.7457   20.3235  -41.4479 C   0  0  0  0  0  0  0  0  0  0  0  0
  -11.3760   18.3220  -41.0646 C   0  0  0  0  0  0  0  0  0  0  0  0
  -11.9175   17.0477  -40.8630 C   0  0  0  0  0  0  0  0  0  0  0  0
  -13.4014   15.8138  -43.9377 N   0  0  0  0  0  0  0  0  0  0  0  0
  -13.9528   16.1707  -45.1092 C   0  0  0  0  0  0  0  0  0  0  0  0
  -14.4888   17.3744  -45.2369 N   0  0  0  0  0  0  0  0  0  0  0  0
  -14.9530   20.6396  -43.5114 C   0  0  0  0  0  0  0  0  0  0  0  0
  -16.0910   21.6242  -43.4596 C   0  0  1  0  0  0  0  0  0  0  0  0
  -15.6067   22.9717  -42.9738 C   0  0  0  0  0  0  0  0  0  0  0  0
  -16.8110   21.7245  -44.6383 O   0  0  0  0  0  0  0  0  0  0  0  0
  2  1  1  6
  2  3  1  0
  3  4  1  0
  4  5  1  0
  5  6  2  0
  6  7  1  0
  7  8  1  0
  8  9  2  0
  9 10  1  0
 10 11  1  0
 11 12  2  0
 12 13  1  0
 13 14  2  0
 14 15  1  0
 15 16  1  0
 16 17  1  0
 16 18  1  0
 18 19  1  0
 14 20  1  0
 20 21  2  0
  7 22  2  0
 22 23  1  0
 23 24  2  0
  4 25  1  0
 25 26  1  0
 26 27  1  6
 26 28  1  0
 28  2  1  0
 24  5  1  0
 21  8  1  0
 21 11  1  0
 19 16  1  0
M  END
$$$$
