
     RDKit          3D

 34 33  0  0  0  0  0  0  0  0999 V2000
  -20.9796   17.6628  -33.6813 N   0  0  0  0  0  0  0  0  0  0  0  0
  -20.9817   17.6664  -33.6696 N   0  0  0  0  0  0  0  0  0  0  0  0
  -20.9783   17.6597  -33.7073 N   0  0  0  0  0  0  0  0  0  0  0  0
  -23.1115   22.9142  -36.1021 O   0  0  0  0  0  0  0  0  0  0  0  0
  -23.1153   21.6963  -35.8043 C   0  0  0  0  0  0  0  0  0  0  0  0
  -24.3435   21.0380  -35.9893 O   0  0  0  0  0  0  0  0  0  0  0  0
  -21.9342   21.0111  -35.3020 C   0  0  0  0  0  0  0  0  0  0  0  0
  -21.9207   19.7343  -34.9841 C   0  0  0  0  0  0  0  0  0  0  0  0
  -20.6805   19.1073  -34.4798 C   0  0  0  0  0  0  0  0  0  0  0  0
  -20.6280   17.8254  -34.2131 C   0  0  0  0  0  0  0  0  0  0  0  0
  -19.4111   17.2199  -33.7044 C   0  0  0  0  0  0  0  0  0  0  0  0
  -18.8314   16.1298  -34.3157 C   0  0  0  0  0  0  0  0  0  0  0  0
  -17.6975   15.5023  -33.8175 C   0  0  0  0  0  0  0  0  0  0  0  0
  -17.1345   16.0056  -32.6525 C   0  0  0  0  0  0  0  0  0  0  0  0
  -16.0031   15.4246  -32.1050 O   0  0  0  0  0  0  0  0  0  0  0  0
  -17.6857   17.0867  -32.0206 C   0  0  0  0  0  0  0  0  0  0  0  0
  -17.0768   17.5905  -30.8063 C   0  0  0  0  0  0  0  0  0  0  0  0
  -16.0517   17.0520  -30.3227 O   0  0  0  0  0  0  0  0  0  0  0  0
  -17.6340   18.6951  -30.1536 O   0  0  0  0  0  0  0  0  0  0  0  0
  -18.8142   17.6774  -32.5544 C   0  0  0  0  0  0  0  0  0  0  0  0
  -21.7900   16.9770  -34.4865 C   0  0  0  0  0  0  0  0  0  0  0  0
  -22.3793   16.9754  -35.7259 C   0  0  0  0  0  0  0  0  0  0  0  0
  -23.5029   16.1862  -36.0016 C   0  0  0  0  0  0  0  0  0  0  0  0
  -24.0271   15.3937  -35.0052 C   0  0  0  0  0  0  0  0  0  0  0  0
  -25.1348   14.5788  -35.1781 O   0  0  0  0  0  0  0  0  0  0  0  0
  -23.4268   15.4016  -33.7597 C   0  0  0  0  0  0  0  0  0  0  0  0
  -23.9922   14.5661  -32.7123 C   0  0  0  0  0  0  0  0  0  0  0  0
  -25.0071   13.8419  -32.9062 O   0  0  0  0  0  0  0  0  0  0  0  0
  -23.3990   14.5644  -31.4614 O   0  0  0  0  0  0  0  0  0  0  0  0
  -22.3249   16.1776  -33.4946 C   0  0  0  0  0  0  0  0  0  0  0  0
  -19.4688   19.9052  -34.3329 C   0  0  0  0  0  0  0  0  0  0  0  0
  -19.4940   21.1819  -34.6521 C   0  0  0  0  0  0  0  0  0  0  0  0
  -20.7162   21.7988  -35.1497 C   0  0  0  0  0  0  0  0  0  0  0  0
  -20.7032   23.0384  -35.4492 O   0  0  0  0  0  0  0  0  0  0  0  0
  4  5  2  0
  5  6  1  0
  5  7  1  0
  7  8  2  0
  8  9  1  0
  9 10  2  3
 10 11  1  0
 11 12  2  0
 12 13  1  0
 13 14  2  0
 14 15  1  0
 14 16  1  0
 16 17  1  0
 17 18  2  0
 17 19  1  0
 16 20  2  0
 10 21  1  0
 21 22  2  0
 22 23  1  0
 23 24  2  0
 24 25  1  0
 24 26  1  0
 26 27  1  0
 27 28  2  0
 27 29  1  0
 26 30  2  0
  9 31  1  0
 31 32  2  0
 32 33  1  0
 33 34  2  0
 33  7  1  0
 20 11  1  0
 30 21  1  0
M  END
$$$$
