
     RDKit          3D

 27 29  0  0  0  0  0  0  0  0999 V2000
  -16.6074   36.4020  -20.2822 O   0  0  0  0  0  0  0  0  0  0  0  0
  -16.8161   35.3902  -20.9953 C   0  0  0  0  0  0  0  0  0  0  0  0
  -15.8030   34.4400  -21.0062 O   0  0  0  0  0  0  0  0  0  0  0  0
  -18.0292   35.2172  -21.7587 C   0  0  0  0  0  0  0  0  0  0  0  0
  -18.4033   33.9174  -22.0895 C   0  0  0  0  0  0  0  0  0  0  0  0
  -19.5506   33.6989  -22.8142 C   0  0  0  0  0  0  0  0  0  0  0  0
  -20.3222   34.7851  -23.2070 C   0  0  0  0  0  0  0  0  0  0  0  0
  -19.9403   36.0507  -22.8735 C   0  0  0  0  0  0  0  0  0  0  0  0
  -18.7797   36.3036  -22.1383 C   0  0  0  0  0  0  0  0  0  0  0  0
  -18.4157   37.6888  -21.8307 C   0  0  0  0  0  0  0  0  0  0  0  0
  -17.5515   37.9974  -21.0113 O   0  0  0  0  0  0  0  0  0  0  0  0
  -19.0993   38.7179  -22.5326 N   0  0  0  0  0  0  0  0  0  0  0  0
  -18.9944   40.0795  -22.2281 C   0  0  0  0  0  0  0  0  0  0  0  0
  -19.5344   41.0482  -23.0103 C   0  0  0  0  0  0  0  0  0  0  0  0
  -19.3827   42.3822  -22.6504 C   0  0  0  0  0  0  0  0  0  0  0  0
  -18.7068   42.7611  -21.5354 C   0  0  0  0  0  0  0  0  0  0  0  0
  -18.5145   44.4064  -21.0137 S   0  0  0  0  0  6  0  0  0  0  0  0
  -18.6375   45.3709  -22.1686 O   0  0  0  0  0  0  0  0  0  0  0  0
  -19.7080   44.7504  -20.1173 O   0  0  0  0  0  0  0  0  0  0  0  0
  -17.0633   44.6148  -20.1548 N   0  0  0  0  0  0  0  0  0  0  0  0
  -15.8077   44.5098  -20.8494 C   0  0  0  0  0  0  0  0  0  0  0  0
  -15.0078   45.2075  -21.2714 N   0  0  0  0  0  0  0  0  0  0  0  0
  -13.8739   44.8833  -21.9133 C   0  0  0  0  0  0  0  0  0  0  0  0
  -13.6619   43.5593  -22.0738 C   0  0  0  0  0  0  0  0  0  0  0  0
  -15.1186   42.8103  -21.2866 S   0  0  0  0  0  0  0  0  0  0  0  0
  -18.1533   41.7541  -20.7395 C   0  0  0  0  0  0  0  0  0  0  0  0
  -18.2991   40.4563  -21.0826 C   0  0  0  0  0  0  0  0  0  0  0  0
  1  2  2  0
  2  3  1  0
  2  4  1  0
  4  5  2  0
  5  6  1  0
  6  7  2  0
  7  8  1  0
  8  9  2  0
  9 10  1  0
 10 11  2  0
 10 12  1  0
 12 13  1  0
 13 14  2  0
 14 15  1  0
 15 16  2  0
 16 17  1  0
 17 18  2  0
 17 19  2  0
 17 20  1  0
 20 21  1  0
 21 22  2  0
 22 23  1  0
 23 24  2  0
 24 25  1  0
 16 26  1  0
 26 27  2  0
  9  4  1  0
 27 13  1  0
 25 21  1  0
M  END
$$$$
