
     RDKit          3D

 22 22  0  0  0  0  0  0  0  0999 V2000
   -8.0609   18.2985  -41.1472 C   0  0  0  0  0  0  0  0  0  0  0  0
   -9.3420   18.5745  -40.3736 C   0  0  0  0  0  0  0  0  0  0  0  0
  -10.2153   17.3018  -40.4567 C   0  0  0  0  0  0  0  0  0  0  0  0
  -11.5209   17.5732  -39.7056 C   0  0  0  0  0  0  0  0  0  0  0  0
  -12.5056   16.6155  -39.7389 N   0  0  0  0  0  0  0  0  0  0  0  0
  -13.0697   16.0152  -38.6207 C   0  0  0  0  0  0  0  0  0  0  0  0
  -13.4034   16.8577  -37.4233 C   0  0  0  0  0  0  0  0  0  0  0  0
  -13.8264   15.8871  -36.3004 C   0  0  0  0  0  0  0  0  0  0  0  0
  -14.1385   16.6508  -35.0588 C   0  0  0  0  0  0  0  0  0  0  0  0
  -13.3109   16.4423  -40.8890 C   0  0  0  0  0  0  0  0  0  0  0  0
  -14.6818   17.0178  -40.8838 C   0  0  0  0  0  0  0  0  0  0  0  0
  -14.9455   18.0385  -41.9173 C   0  0  0  0  0  0  0  0  0  0  0  0
  -16.3200   18.4750  -41.9106 O   0  0  0  0  0  0  0  0  0  0  0  0
  -16.7012   19.4826  -42.7584 C   0  0  0  0  0  0  0  0  0  0  0  0
  -15.8707   19.9445  -43.5738 O   0  0  0  0  0  0  0  0  0  0  0  0
  -18.0755   20.0265  -42.7218 C   0  0  0  0  0  0  0  0  0  0  0  0
  -18.7345   20.3459  -43.8885 C   0  0  0  0  0  0  0  0  0  0  0  0
  -20.0101   20.8715  -43.8694 C   0  0  0  0  0  0  0  0  0  0  0  0
  -20.6897   21.1052  -42.6953 C   0  0  0  0  0  0  0  0  0  0  0  0
  -21.9971   21.6621  -42.7022 N   0  0  0  0  0  0  0  0  0  0  0  0
  -20.0369   20.7861  -41.5128 C   0  0  0  0  0  0  0  0  0  0  0  0
  -18.7421   20.2529  -41.5391 C   0  0  0  0  0  0  0  0  0  0  0  0
  1  2  1  0
  2  3  1  0
  3  4  1  0
  4  5  1  0
  5  6  1  0
  6  7  1  0
  7  8  1  0
  8  9  1  0
  5 10  1  0
 10 11  1  0
 11 12  1  0
 12 13  1  0
 13 14  1  0
 14 15  2  0
 14 16  1  0
 16 17  2  0
 17 18  1  0
 18 19  2  0
 19 20  1  0
 19 21  1  0
 21 22  2  0
 22 16  1  0
M  END
$$$$
