
     RDKit          3D

 25 27  0  0  0  0  0  0  0  0999 V2000
  -14.9273   44.2268  -22.2191 C   0  0  0  0  0  0  0  0  0  0  0  0
  -15.8091   44.6694  -21.1397 C   0  0  0  0  0  0  0  0  0  0  0  0
  -15.3463   44.4887  -19.8254 C   0  0  0  0  0  0  0  0  0  0  0  0
  -14.1134   43.9188  -19.5567 O   0  0  0  0  0  0  0  0  0  0  0  0
  -12.9147   44.6263  -19.5200 C   0  0  0  0  0  0  0  0  0  0  0  0
  -11.7296   43.6998  -19.3492 C   0  0  0  0  0  0  0  0  0  0  0  0
  -12.1214   42.5181  -18.7425 F   0  0  0  0  0  0  0  0  0  0  0  0
  -11.1594   43.3622  -20.5477 F   0  0  0  0  0  0  0  0  0  0  0  0
  -10.7285   44.3215  -18.5961 F   0  0  0  0  0  0  0  0  0  0  0  0
  -16.1448   44.8906  -18.7922 C   0  0  0  0  0  0  0  0  0  0  0  0
  -17.3707   45.4575  -19.0379 C   0  0  0  0  0  0  0  0  0  0  0  0
  -17.7793   45.6137  -20.3192 N   0  0  0  0  0  0  0  0  0  0  0  0
  -17.0302   45.2341  -21.3847 C   0  0  0  0  0  0  0  0  0  0  0  0
  -17.5493   45.4402  -22.7530 C   0  0  0  0  0  0  0  0  0  0  0  0
  -18.9383   44.4216  -23.1745 S   0  0  0  0  0  4  0  0  0  0  0  0
  -19.4746   44.6435  -24.5517 O   0  0  0  0  0  0  0  0  0  0  0  0
  -18.7518   42.7455  -22.7141 C   0  0  0  0  0  0  0  0  0  0  0  0
  -18.4531   41.7141  -23.5302 N   0  0  0  0  0  0  0  0  0  0  0  0
  -18.3994   40.5855  -22.7767 C   0  0  0  0  0  0  0  0  0  0  0  0
  -18.1420   39.2591  -23.0603 C   0  0  0  0  0  0  0  0  0  0  0  0
  -18.1538   38.2988  -22.0714 C   0  0  0  0  0  0  0  0  0  0  0  0
  -18.4251   38.6498  -20.7716 C   0  0  0  0  0  0  0  0  0  0  0  0
  -18.6858   39.9656  -20.4584 C   0  0  0  0  0  0  0  0  0  0  0  0
  -18.6686   40.9090  -21.4630 C   0  0  0  0  0  0  0  0  0  0  0  0
  -18.8778   42.2490  -21.4819 N   0  0  0  0  0  0  0  0  0  0  0  0
  1  2  1  0
  2  3  2  0
  3  4  1  0
  4  5  1  0
  5  6  1  0
  6  7  1  0
  6  8  1  0
  6  9  1  0
  3 10  1  0
 10 11  2  0
 11 12  1  0
 12 13  2  0
 13 14  1  0
 14 15  1  0
 15 16  2  0
 15 17  1  0
 17 18  2  0
 18 19  1  0
 19 20  2  0
 20 21  1  0
 21 22  2  0
 22 23  1  0
 23 24  2  0
 24 25  1  0
 13  2  1  0
 25 17  1  0
 24 19  1  0
M  END
$$$$
