
     RDKit          3D

 24 28  0  0  0  0  0  0  0  0999 V2000
  -19.6416   37.5370  -24.6120 N   0  0  0  0  0  0  0  0  0  0  0  0
  -19.2373   38.8576  -24.1693 C   0  0  0  0  0  0  0  0  0  0  0  0
  -19.2126   39.7278  -25.0293 O   0  0  0  0  0  0  0  0  0  0  0  0
  -18.9038   39.0465  -22.7880 C   0  0  0  0  0  0  0  0  0  0  0  0
  -18.9520   37.9278  -21.9633 C   0  0  0  0  0  0  0  0  0  0  0  0
  -18.6004   37.9906  -20.7022 N   0  0  0  0  0  0  0  0  0  0  0  0
  -18.1801   39.1456  -20.1654 C   0  0  0  0  0  0  0  0  0  0  0  0
  -17.7869   39.4058  -18.9008 N   0  0  0  0  0  0  0  0  0  0  0  0
  -17.4692   40.6917  -18.8445 C   0  0  0  0  0  0  0  0  0  0  0  0
  -17.6619   41.2729  -20.1011 C   0  0  0  0  0  0  0  0  0  0  0  0
  -18.1146   40.2987  -20.9519 C   0  0  0  0  0  0  0  0  0  0  0  0
  -18.4818   40.2812  -22.3070 C   0  0  0  0  0  0  0  0  0  0  0  0
  -18.5113   41.4308  -23.0684 N   0  0  0  0  0  0  0  0  0  0  0  0
  -18.3216   42.8118  -22.7987 C   0  0  1  0  0  0  0  0  0  0  0  0
  -17.6187   43.4524  -23.9705 C   0  0  1  0  0  0  0  0  0  0  0  0
  -18.4526   43.3986  -25.2379 C   0  0  0  0  0  0  0  0  0  0  0  0
  -19.7361   44.1603  -25.0511 C   0  0  1  0  0  0  0  0  0  0  0  0
  -20.4842   43.4736  -23.9323 C   0  0  0  0  0  0  0  0  0  0  0  0
  -19.6811   43.5518  -22.6866 C   0  0  2  0  0  0  0  0  0  0  0  0
  -19.4029   44.9800  -22.3470 C   0  0  0  0  0  0  0  0  0  0  0  0
  -18.6110   45.6365  -23.4525 C   0  0  2  0  0  0  0  0  0  0  0  0
  -18.3323   46.9530  -23.1146 O   0  0  0  0  0  0  0  0  0  0  0  0
  -19.3947   45.5881  -24.7258 C   0  0  0  0  0  0  0  0  0  0  0  0
  -17.3258   44.8982  -23.6263 C   0  0  0  0  0  0  0  0  0  0  0  0
  1  2  1  0
  2  3  2  0
  2  4  1  0
  4  5  2  0
  5  6  1  0
  6  7  2  0
  7  8  1  0
  8  9  1  0
  9 10  2  0
 10 11  1  0
 11 12  2  0
 12 13  1  0
 14 13  1  6
 14 15  1  0
 15 16  1  6
 17 16  1  1
 17 18  1  0
 19 18  1  6
 19 20  1  0
 20 21  1  0
 21 22  1  1
 21 23  1  0
 21 24  1  0
 12  4  1  0
 19 14  1  0
 11  7  1  0
 24 15  1  0
 23 17  1  0
M  END
$$$$
