
     RDKit          3D

 37 40  0  0  0  0  0  0  0  0999 V2000
  -13.5776   17.8445  -40.8110 N   0  0  0  0  0  0  0  0  0  0  0  0
  -13.5406   17.7131  -39.4024 C   0  0  0  0  0  0  0  0  0  0  0  0
  -12.5869   16.9384  -38.7588 C   0  0  0  0  0  0  0  0  0  0  0  0
  -12.5722   16.8263  -37.3833 C   0  0  0  0  0  0  0  0  0  0  0  0
  -13.4955   17.4719  -36.5817 C   0  0  0  0  0  0  0  0  0  0  0  0
  -13.4271   17.3193  -35.2134 O   0  0  0  0  0  0  0  0  0  0  0  0
  -14.4791   16.8671  -34.4269 C   0  0  0  0  0  0  0  0  0  0  0  0
  -15.2369   15.7604  -34.7458 C   0  0  0  0  0  0  0  0  0  0  0  0
  -16.2778   15.3457  -33.9303 C   0  0  0  0  0  0  0  0  0  0  0  0
  -16.6080   16.0116  -32.7677 C   0  0  0  0  0  0  0  0  0  0  0  0
  -17.7376   15.5224  -31.9335 C   0  0  0  0  0  0  0  0  0  0  0  0
  -18.5705   16.6488  -31.4337 C   0  0  0  0  0  0  0  0  0  0  0  0
  -19.8338   16.4951  -30.9019 C   0  0  0  0  0  0  0  0  0  0  0  0
  -20.5494   17.6097  -30.4506 C   0  0  0  0  0  0  0  0  0  0  0  0
  -20.0335   18.8864  -30.5162 C   0  0  0  0  0  0  0  0  0  0  0  0
  -20.7778   19.9626  -30.0571 O   0  0  0  0  0  0  0  0  0  0  0  0
  -22.1010   20.1636  -30.3815 C   0  0  0  0  0  0  0  0  0  0  0  0
  -22.5012   20.3262  -31.6952 C   0  0  0  0  0  0  0  0  0  0  0  0
  -23.8335   20.5289  -32.0237 C   0  0  0  0  0  0  0  0  0  0  0  0
  -24.7643   20.5664  -31.0112 C   0  0  0  0  0  0  0  0  0  0  0  0
  -26.1361   20.7729  -31.3227 N   0  0  0  0  0  0  0  0  0  0  0  0
  -24.4028   20.4079  -29.6846 C   0  0  0  0  0  0  0  0  0  0  0  0
  -23.0494   20.2063  -29.4020 C   0  0  0  0  0  0  0  0  0  0  0  0
  -18.7697   19.0282  -31.0496 C   0  0  0  0  0  0  0  0  0  0  0  0
  -18.0531   17.9134  -31.5013 C   0  0  0  0  0  0  0  0  0  0  0  0
  -17.2022   14.6919  -30.7612 C   0  0  0  0  0  0  0  0  0  0  0  0
  -16.5359   15.4292  -29.8357 F   0  0  0  0  0  0  0  0  0  0  0  0
  -16.2513   13.8405  -31.3453 F   0  0  0  0  0  0  0  0  0  0  0  0
  -18.1931   13.8912  -30.2629 F   0  0  0  0  0  0  0  0  0  0  0  0
  -18.6320   14.6011  -32.7021 C   0  0  0  0  0  0  0  0  0  0  0  0
  -19.1124   15.3445  -33.7924 F   0  0  0  0  0  0  0  0  0  0  0  0
  -18.0244   13.5070  -33.2358 F   0  0  0  0  0  0  0  0  0  0  0  0
  -19.7777   14.2646  -31.9777 F   0  0  0  0  0  0  0  0  0  0  0  0
  -15.8484   17.1181  -32.4514 C   0  0  0  0  0  0  0  0  0  0  0  0
  -14.8088   17.5324  -33.2655 C   0  0  0  0  0  0  0  0  0  0  0  0
  -14.4477   18.2444  -37.2131 C   0  0  0  0  0  0  0  0  0  0  0  0
  -14.4575   18.3530  -38.5910 C   0  0  0  0  0  0  0  0  0  0  0  0
  1  2  1  0
  2  3  2  0
  3  4  1  0
  4  5  2  0
  5  6  1  0
  6  7  1  0
  7  8  2  0
  8  9  1  0
  9 10  2  0
 10 11  1  0
 11 12  1  0
 12 13  2  0
 13 14  1  0
 14 15  2  0
 15 16  1  0
 16 17  1  0
 17 18  2  0
 18 19  1  0
 19 20  2  0
 20 21  1  0
 20 22  1  0
 22 23  2  0
 15 24  1  0
 24 25  2  0
 11 26  1  0
 26 27  1  0
 26 28  1  0
 26 29  1  0
 11 30  1  0
 30 31  1  0
 30 32  1  0
 30 33  1  0
 10 34  1  0
 34 35  2  0
  5 36  1  0
 36 37  2  0
 37  2  1  0
 35  7  1  0
 25 12  1  0
 23 17  1  0
M  END
$$$$
