
     RDKit          3D

 11  9  0  0  0  0  0  0  0  0999 V2000
  -18.7826   37.6329  -23.0362 C   0  0  0  0  0  0  0  0  0  0  0  0
  -17.5210   37.3208  -22.3032 C   0  0  0  0  0  0  0  0  0  0  0  0
  -16.9745   38.5642  -21.7562 N   0  0  0  0  0  0  0  0  0  0  0  0
  -17.7024   36.3749  -21.1553 C   0  0  0  0  0  0  0  0  0  0  0  0
  -18.2445   35.0656  -21.5687 C   0  0  0  0  0  0  0  0  0  0  0  0
  -17.5121   33.9624  -21.9468 C   0  0  0  0  0  0  0  0  0  0  0  0
  -18.3568   32.9518  -22.2551 N   0  0  0  0  0  0  0  0  0  0  0  0
  -19.6007   33.4209  -22.0708 C   0  0  0  0  0  0  0  0  0  0  0  0
  -19.5338   34.7099  -21.6521 N   0  0  0  0  0  0  0  0  0  0  0  0
  -18.2661   35.3160  -21.9283 Cl  0  0  0  0  0  0  0  0  0  0  0  0
  -18.2659   35.3167  -21.9284 Cl  0  0  0  0  0  0  0  0  0  0  0  0
  1  2  1  0
  2  3  1  0
  2  4  1  0
  4  5  1  0
  5  6  2  0
  6  7  1  0
  7  8  1  0
  8  9  2  0
  9  5  1  0
M  END
$$$$
