
     RDKit          3D

 34 37  0  0  0  0  0  0  0  0999 V2000
  -19.3832   20.5515  -32.3454 C   0  0  0  0  0  0  0  0  0  0  0  0
  -20.1878   19.5011  -32.8273 O   0  0  0  0  0  0  0  0  0  0  0  0
  -21.4045   19.2024  -32.1973 C   0  0  0  0  0  0  0  0  0  0  0  0
  -21.9724   17.9982  -32.4301 N   0  0  0  0  0  0  0  0  0  0  0  0
  -23.1331   17.6094  -31.8807 C   0  0  0  0  0  0  0  0  0  0  0  0
  -23.7978   18.4805  -31.0249 C   0  0  0  0  0  0  0  0  0  0  0  0
  -24.9893   18.1276  -30.4372 C   0  0  0  0  0  0  0  0  0  0  0  0
  -25.6226   19.0077  -29.5960 C   0  0  0  0  0  0  0  0  0  0  0  0
  -26.8805   18.7168  -28.9342 C   0  0  0  0  0  0  0  0  0  0  0  0
  -27.5455   17.7227  -29.3158 O   0  0  0  0  0  0  0  0  0  0  0  0
  -27.4263   19.4740  -27.8787 N   0  0  0  0  0  0  0  0  0  0  0  0
  -28.7046   19.2594  -27.2881 C   0  0  0  0  0  0  0  0  0  0  0  0
  -29.1316   17.9816  -26.9448 C   0  0  0  0  0  0  0  0  0  0  0  0
  -30.3387   17.7111  -26.3765 C   0  0  0  0  0  0  0  0  0  0  0  0
  -30.8180   16.3807  -26.0053 C   0  0  0  0  0  0  0  0  0  0  0  0
  -30.0295   15.5673  -25.4291 O   0  0  0  0  0  0  0  0  0  0  0  0
  -32.1228   15.9403  -26.2521 N   0  0  0  0  0  0  0  0  0  0  0  0
  -32.6466   14.6326  -25.9033 C   0  0  0  0  0  0  0  0  0  0  0  0
  -33.5141   14.6167  -24.7255 C   0  0  0  0  0  0  0  0  0  0  0  0
  -33.8030   13.4043  -24.1202 C   0  0  0  0  0  0  0  0  0  0  0  0
  -34.6080   13.3198  -23.0032 C   0  0  0  0  0  0  0  0  0  0  0  0
  -35.1452   14.4709  -22.4667 C   0  0  0  0  0  0  0  0  0  0  0  0
  -34.8800   15.6879  -23.0400 C   0  0  0  0  0  0  0  0  0  0  0  0
  -35.5761   17.1310  -22.3372 Cl  0  0  0  0  0  0  0  0  0  0  0  0
  -34.0691   15.7359  -24.1587 C   0  0  0  0  0  0  0  0  0  0  0  0
  -31.1715   18.8099  -26.1393 C   0  0  0  0  0  0  0  0  0  0  0  0
  -30.8101   20.1016  -26.4552 C   0  0  0  0  0  0  0  0  0  0  0  0
  -29.5723   20.2994  -27.0283 C   0  0  0  0  0  0  0  0  0  0  0  0
  -29.0523   21.9237  -27.4533 Cl  0  0  0  0  0  0  0  0  0  0  0  0
  -25.0068   20.2234  -29.3879 C   0  0  0  0  0  0  0  0  0  0  0  0
  -25.5786   21.1745  -28.5511 O   0  0  0  0  0  0  0  0  0  0  0  0
  -23.8408   20.5559  -29.9698 N   0  0  0  0  0  0  0  0  0  0  0  0
  -23.2009   19.7004  -30.8027 C   0  0  0  0  0  0  0  0  0  0  0  0
  -22.0255   20.0576  -31.3773 N   0  0  0  0  0  0  0  0  0  0  0  0
  1  2  1  0
  2  3  1  0
  3  4  2  0
  4  5  1  0
  5  6  2  0
  6  7  1  0
  7  8  2  0
  8  9  1  0
  9 10  2  0
  9 11  1  0
 11 12  1  0
 12 13  2  0
 13 14  1  0
 14 15  1  0
 15 16  2  0
 15 17  1  0
 17 18  1  0
 18 19  1  0
 19 20  2  0
 20 21  1  0
 21 22  2  0
 22 23  1  0
 23 24  1  0
 23 25  2  0
 14 26  2  0
 26 27  1  0
 27 28  2  0
 28 29  1  0
  8 30  1  0
 30 31  1  0
 30 32  2  0
 32 33  1  0
 33 34  2  0
 34  3  1  0
 33  6  1  0
 28 12  1  0
 25 19  1  0
M  END
$$$$
