
     RDKit          3D

 27 29  0  0  0  0  0  0  0  0999 V2000
  -14.3486   12.7879  -28.0727 C   0  0  0  0  0  0  0  0  0  0  0  0
  -14.5315   13.5017  -29.1263 O   0  0  0  0  0  0  0  0  0  0  0  0
  -14.7048   14.2126  -30.1997 C   0  0  0  0  0  0  0  0  0  0  0  0
  -13.8746   14.0339  -31.3289 C   0  0  0  0  0  0  0  0  0  0  0  0
  -14.0774   14.7955  -32.4481 C   0  0  0  0  0  0  0  0  0  0  0  0
  -15.0772   15.7438  -32.5128 C   0  0  0  0  0  0  0  0  0  0  0  0
  -15.2482   16.5305  -33.7364 C   0  0  0  0  0  0  0  0  0  0  0  0
  -14.2462   17.1801  -34.4231 C   0  0  0  0  0  0  0  0  0  0  0  0
  -14.8331   17.7945  -35.5068 C   0  0  0  0  0  0  0  0  0  0  0  0
  -14.1458   18.6285  -36.5580 C   0  0  0  0  0  0  0  0  0  0  0  0
  -14.9789   18.6660  -37.6594 F   0  0  0  0  0  0  0  0  0  0  0  0
  -13.9971   19.9374  -36.0821 F   0  0  0  0  0  0  0  0  0  0  0  0
  -16.1389   17.4986  -35.4344 N   0  0  0  0  0  0  0  0  0  0  0  0
  -16.4258   16.7443  -34.3889 N   0  0  0  0  0  0  0  0  0  0  0  0
  -17.7001   16.2375  -33.9930 C   0  0  0  0  0  0  0  0  0  0  0  0
  -18.7508   17.0503  -33.6304 C   0  0  0  0  0  0  0  0  0  0  0  0
  -19.9718   16.5343  -33.2517 C   0  0  0  0  0  0  0  0  0  0  0  0
  -20.1636   15.1883  -33.2293 C   0  0  0  0  0  0  0  0  0  0  0  0
  -21.7291   14.5629  -32.7424 S   0  0  0  0  0  6  0  0  0  0  0  0
  -22.3230   13.6256  -34.0818 N   0  0  0  0  0  0  0  0  0  0  0  0
  -21.6339   13.7464  -31.5025 O   0  0  0  0  0  0  0  0  0  0  0  0
  -22.6795   15.7196  -32.5798 O   0  0  0  0  0  0  0  0  0  0  0  0
  -19.1350   14.3434  -33.5859 C   0  0  0  0  0  0  0  0  0  0  0  0
  -17.9112   14.8767  -33.9649 C   0  0  0  0  0  0  0  0  0  0  0  0
  -15.9061   15.9500  -31.4397 C   0  0  0  0  0  0  0  0  0  0  0  0
  -15.7038   15.1940  -30.3304 C   0  0  0  0  0  0  0  0  0  0  0  0
  -16.4928   15.3465  -29.2238 F   0  0  0  0  0  0  0  0  0  0  0  0
  1  2  1  0
  2  3  1  0
  3  4  2  0
  4  5  1  0
  5  6  2  0
  6  7  1  0
  7  8  2  0
  8  9  1  0
  9 10  1  0
 10 11  1  0
 10 12  1  0
  9 13  2  0
 13 14  1  0
 14 15  1  0
 15 16  2  0
 16 17  1  0
 17 18  2  0
 18 19  1  0
 19 20  1  0
 19 21  2  0
 19 22  2  0
 18 23  1  0
 23 24  2  0
  6 25  1  0
 25 26  2  0
 26 27  1  0
 26  3  1  0
 14  7  1  0
 24 15  1  0
M  END
$$$$
