
     RDKit          3D

 32 37  0  0  0  0  0  0  0  0999 V2000
  -18.4056   31.9306  -20.7045 O   0  0  0  0  0  0  0  0  0  0  0  0
  -18.9563   33.0242  -21.0679 C   0  0  0  0  0  0  0  0  0  0  0  0
  -20.4280   33.1034  -21.1548 C   0  0  0  0  0  0  0  0  0  0  0  0
  -21.2115   31.9511  -21.6834 C   0  0  0  0  0  0  0  0  0  0  0  0
  -21.1341   32.1354  -20.2256 C   0  0  0  0  0  0  0  0  0  0  0  0
  -18.1817   34.1694  -21.3915 N   0  0  0  0  0  0  0  0  0  0  0  0
  -16.7498   34.2728  -21.3187 C   0  0  0  0  0  0  0  0  0  0  0  0
  -16.4590   35.4200  -22.2958 C   0  0  0  0  0  0  0  0  0  0  0  0
  -17.5904   36.3640  -21.9286 C   0  0  1  0  0  0  0  0  0  0  0  0
  -17.7895   37.4260  -22.9826 C   0  0  0  0  0  0  0  0  0  0  0  0
  -19.1425   38.0048  -22.7967 C   0  0  0  0  0  0  0  0  0  0  0  0
  -20.3351   37.4356  -23.0011 N   0  0  0  0  0  0  0  0  0  0  0  0
  -21.3078   38.3012  -22.7147 N   0  0  0  0  0  0  0  0  0  0  0  0
  -20.7352   39.4604  -22.3147 C   0  0  0  0  0  0  0  0  0  0  0  0
  -21.3697   40.4708  -21.9759 O   0  0  0  0  0  0  0  0  0  0  0  0
  -19.3964   39.2534  -22.3735 N   0  0  0  0  0  0  0  0  0  0  0  0
  -18.4393   40.2434  -22.0291 C   0  0  0  0  0  0  0  0  0  0  0  0
  -18.2629   40.5210  -20.6841 C   0  0  0  0  0  0  0  0  0  0  0  0
  -17.3470   41.4744  -20.2880 C   0  0  0  0  0  0  0  0  0  0  0  0
  -16.5785   42.1832  -21.1888 C   0  0  0  0  0  0  0  0  0  0  0  0
  -15.6323   43.1740  -20.7129 C   0  0  0  0  0  0  0  0  0  0  0  0
  -15.5175   44.4171  -21.2816 C   0  0  0  0  0  0  0  0  0  0  0  0
  -14.6196   45.3663  -20.8341 C   0  0  0  0  0  0  0  0  0  0  0  0
  -13.8107   45.0298  -19.7661 C   0  0  0  0  0  0  0  0  0  0  0  0
  -12.8720   45.7299  -19.1354 O   0  0  0  0  0  0  0  0  0  0  0  0
  -12.3508   45.0256  -18.1754 C   0  0  0  0  0  0  0  0  0  0  0  0
  -12.9624   43.7912  -18.1521 C   0  0  0  0  0  0  0  0  0  0  0  0
  -13.8943   43.7931  -19.1671 C   0  0  0  0  0  0  0  0  0  0  0  0
  -14.8167   42.8608  -19.6508 C   0  0  0  0  0  0  0  0  0  0  0  0
  -16.7575   41.9032  -22.5284 C   0  0  0  0  0  0  0  0  0  0  0  0
  -17.6848   40.9374  -22.9366 C   0  0  0  0  0  0  0  0  0  0  0  0
  -18.7624   35.4193  -21.8522 C   0  0  0  0  0  0  0  0  0  0  0  0
  1  2  2  0
  2  3  1  0
  3  4  1  0
  4  5  1  0
  2  6  1  0
  6  7  1  0
  7  8  1  0
  8  9  1  0
  9 10  1  6
 10 11  1  0
 11 12  2  0
 12 13  1  0
 13 14  1  0
 14 15  2  0
 14 16  1  0
 16 17  1  0
 17 18  2  0
 18 19  1  0
 19 20  2  0
 20 21  1  0
 21 22  2  0
 22 23  1  0
 23 24  2  0
 24 25  1  0
 25 26  1  0
 26 27  2  0
 27 28  1  0
 28 29  2  0
 20 30  1  0
 30 31  2  0
  9 32  1  0
  5  3  1  0
 32  6  1  0
 16 11  1  0
 31 17  1  0
 29 21  1  0
 28 24  1  0
M  END
$$$$
