
     RDKit          3D

 29 33  0  0  0  0  0  0  0  0999 V2000
  -25.5069   19.9072  -30.6675 C   0  0  0  0  0  0  0  0  0  0  0  0
  -25.4365   21.2577  -29.9907 C   0  0  0  0  0  0  0  0  0  0  0  0
  -25.4672   22.3490  -30.9304 N   0  0  0  0  0  0  0  0  0  0  0  0
  -24.4521   22.9380  -31.5490 C   0  0  0  0  0  0  0  0  0  0  0  0
  -23.0792   22.7196  -31.5107 C   0  0  0  0  0  0  0  0  0  0  0  0
  -22.1929   23.4639  -32.2500 C   0  0  0  0  0  0  0  0  0  0  0  0
  -22.6537   24.4803  -33.0770 C   0  0  0  0  0  0  0  0  0  0  0  0
  -24.0127   24.7030  -33.1206 C   0  0  0  0  0  0  0  0  0  0  0  0
  -24.9146   23.9551  -32.3765 C   0  0  0  0  0  0  0  0  0  0  0  0
  -26.2754   23.9549  -32.2285 C   0  0  0  0  0  0  0  0  0  0  0  0
  -27.2758   24.6851  -32.7497 N   0  0  0  0  0  0  0  0  0  0  0  0
  -28.5441   24.4646  -32.4218 N   0  0  0  0  0  0  0  0  0  0  0  0
  -28.9140   23.5230  -31.5693 C   0  0  0  0  0  0  0  0  0  0  0  0
  -30.5383   23.1156  -31.0407 S   0  0  0  0  0  0  0  0  0  0  0  0
  -30.7056   21.8994  -29.7754 C   0  0  0  0  0  0  0  0  0  0  0  0
  -29.8434   22.0861  -28.5649 C   0  0  0  0  0  0  0  0  0  0  0  0
  -30.4354   21.5089  -27.3263 C   0  0  0  0  0  0  0  0  0  0  0  0
  -30.6143   20.0447  -27.4895 N   0  0  0  0  0  0  0  0  0  0  0  0
  -31.7259   19.4159  -27.9034 C   0  0  0  0  0  0  0  0  0  0  0  0
  -32.7866   20.0172  -28.2159 O   0  0  0  0  0  0  0  0  0  0  0  0
  -31.5103   18.0899  -27.9222 N   0  0  0  0  0  0  0  0  0  0  0  0
  -30.2490   17.8962  -27.5149 C   0  0  0  0  0  0  0  0  0  0  0  0
  -29.5330   16.7386  -27.3551 C   0  0  0  0  0  0  0  0  0  0  0  0
  -28.2311   16.8187  -26.9151 C   0  0  0  0  0  0  0  0  0  0  0  0
  -27.6372   18.0340  -26.6339 C   0  0  0  0  0  0  0  0  0  0  0  0
  -28.3660   19.1999  -26.7975 C   0  0  0  0  0  0  0  0  0  0  0  0
  -29.6802   19.1408  -27.2401 C   0  0  0  0  0  0  0  0  0  0  0  0
  -27.9065   22.7790  -31.0368 N   0  0  0  0  0  0  0  0  0  0  0  0
  -26.6132   22.9636  -31.3364 C   0  0  0  0  0  0  0  0  0  0  0  0
  1  2  1  0
  2  3  1  0
  3  4  1  0
  4  5  2  0
  5  6  1  0
  6  7  2  0
  7  8  1  0
  8  9  2  0
  9 10  1  0
 10 11  2  0
 11 12  1  0
 12 13  2  0
 13 14  1  0
 14 15  1  0
 15 16  1  0
 16 17  1  0
 17 18  1  0
 18 19  1  0
 19 20  2  0
 19 21  1  0
 21 22  1  0
 22 23  2  0
 23 24  1  0
 24 25  2  0
 25 26  1  0
 26 27  2  0
 13 28  1  0
 28 29  2  0
 29  3  1  0
  9  4  1  0
 29 10  1  0
 27 18  1  0
 27 22  1  0
M  END
$$$$
