
     RDKit          3D

 50 55  0  0  0  0  0  0  0  0999 V2000
  -25.2951   21.3860  -40.3118 C   0  0  0  0  0  0  0  0  0  0  0  0
  -24.2511   22.3255  -40.0859 O   0  0  0  0  0  0  0  0  0  0  0  0
  -23.2257   21.9444  -39.2003 C   0  0  0  0  0  0  0  0  0  0  0  0
  -23.4952   21.1294  -38.1135 C   0  0  0  0  0  0  0  0  0  0  0  0
  -22.5143   20.7725  -37.2767 N   0  0  0  0  0  0  0  0  0  0  0  0
  -21.2383   21.1827  -37.4489 C   0  0  0  0  0  0  0  0  0  0  0  0
  -20.2331   20.7488  -36.4775 C   0  0  0  0  0  0  0  0  0  0  0  0
  -19.1930   21.5622  -36.0947 C   0  0  0  0  0  0  0  0  0  0  0  0
  -18.2645   21.1459  -35.1617 C   0  0  0  0  0  0  0  0  0  0  0  0
  -18.3112   19.9124  -34.5599 C   0  0  0  0  0  0  0  0  0  0  0  0
  -17.3658   19.3742  -33.6193 C   0  0  0  0  0  0  0  0  0  0  0  0
  -16.6370   18.1625  -33.9176 N   0  0  0  0  0  0  0  0  0  0  0  0
  -16.5695   16.9757  -33.3451 C   0  0  0  0  0  0  0  0  0  0  0  0
  -17.1774   16.5094  -32.1153 C   0  0  0  0  0  0  0  0  0  0  0  0
  -18.5979   16.7446  -31.7737 C   0  0  0  0  0  0  0  0  0  0  0  0
  -18.9840   16.1494  -30.3842 C   0  0  0  0  0  0  0  0  0  0  0  0
  -18.9423   18.2003  -31.7287 C   0  0  0  0  0  0  0  0  0  0  0  0
  -19.5699   15.9489  -32.6239 C   0  0  0  0  0  0  0  0  0  0  0  0
  -20.6243   15.5393  -32.1419 O   0  0  0  0  0  0  0  0  0  0  0  0
  -19.2335   15.7078  -33.9275 O   0  0  0  0  0  0  0  0  0  0  0  0
  -15.7446   16.0857  -34.1014 C   0  0  0  0  0  0  0  0  0  0  0  0
  -15.4698   14.3810  -33.9267 S   0  0  0  0  0  0  0  0  0  0  0  0
  -13.9850   13.6565  -33.4195 C   0  0  0  0  0  0  0  0  0  0  0  0
  -14.3922   12.6605  -32.2466 C   0  0  0  0  0  0  0  0  0  0  0  0
  -13.2524   12.7824  -34.3854 C   0  0  0  0  0  0  0  0  0  0  0  0
  -12.9758   14.5570  -32.7191 C   0  0  0  0  0  0  0  0  0  0  0  0
  -15.3215   16.8809  -35.1816 C   0  0  0  0  0  0  0  0  0  0  0  0
  -14.5033   16.5319  -36.2407 C   0  0  0  0  0  0  0  0  0  0  0  0
  -14.2060   17.4494  -37.2294 C   0  0  0  0  0  0  0  0  0  0  0  0
  -13.3918   17.0999  -38.2857 O   0  0  0  0  0  0  0  0  0  0  0  0
  -13.7693   17.0446  -39.6372 C   0  0  0  0  0  0  0  0  0  0  0  0
  -12.8716   17.9938  -40.4282 C   0  0  2  0  0  0  0  0  0  0  0  0
  -13.7029   19.0003  -41.1630 C   0  0  0  0  0  0  0  0  0  0  0  0
  -13.7601   18.4466  -42.5305 C   0  0  0  0  0  0  0  0  0  0  0  0
  -14.5593   18.8143  -43.5930 C   0  0  0  0  0  0  0  0  0  0  0  0
  -14.4565   18.1692  -44.7957 C   0  0  0  0  0  0  0  0  0  0  0  0
  -13.5418   17.1379  -44.9473 C   0  0  0  0  0  0  0  0  0  0  0  0
  -12.7522   16.7880  -43.8675 C   0  0  0  0  0  0  0  0  0  0  0  0
  -12.8372   17.4200  -42.6505 C   0  0  0  0  0  0  0  0  0  0  0  0
  -12.1435   17.2485  -41.4036 N   0  0  0  0  0  0  0  0  0  0  0  0
  -10.9723   16.4892  -41.2108 C   0  0  0  0  0  0  0  0  0  0  0  0
  -10.2243   16.5703  -39.9375 C   0  0  0  0  0  0  0  0  0  0  0  0
  -10.5610   15.7438  -42.1196 O   0  0  0  0  0  0  0  0  0  0  0  0
  -14.7521   18.7279  -37.1262 C   0  0  0  0  0  0  0  0  0  0  0  0
  -15.5734   19.0489  -36.0452 C   0  0  0  0  0  0  0  0  0  0  0  0
  -15.8620   18.1186  -35.0619 C   0  0  0  0  0  0  0  0  0  0  0  0
  -19.3834   19.1231  -34.9814 C   0  0  0  0  0  0  0  0  0  0  0  0
  -20.3068   19.4998  -35.8897 C   0  0  0  0  0  0  0  0  0  0  0  0
  -20.9726   21.9675  -38.4940 N   0  0  0  0  0  0  0  0  0  0  0  0
  -21.9217   22.3598  -39.3715 C   0  0  0  0  0  0  0  0  0  0  0  0
  1  2  1  0
  2  3  1  0
  3  4  2  0
  4  5  1  0
  5  6  2  0
  6  7  1  0
  7  8  2  0
  8  9  1  0
  9 10  2  0
 10 11  1  0
 11 12  1  0
 12 13  1  0
 13 14  1  0
 14 15  1  0
 15 16  1  0
 15 17  1  0
 15 18  1  0
 18 19  2  0
 18 20  1  0
 13 21  2  0
 21 22  1  0
 22 23  1  0
 23 24  1  0
 23 25  1  0
 23 26  1  0
 21 27  1  0
 27 28  2  0
 28 29  1  0
 29 30  1  0
 30 31  1  0
 32 31  1  6
 32 33  1  0
 33 34  1  0
 34 35  2  0
 35 36  1  0
 36 37  2  0
 37 38  1  0
 38 39  2  0
 39 40  1  0
 40 41  1  0
 41 42  1  0
 41 43  2  0
 29 44  2  0
 44 45  1  0
 45 46  2  0
 10 47  1  0
 47 48  2  0
  6 49  1  0
 49 50  2  0
 50  3  1  0
 48  7  1  0
 46 12  1  0
 46 27  1  0
 40 32  1  0
 39 34  1  0
M  END
$$$$
