
     RDKit          3D

 36 38  0  0  0  0  0  0  0  0999 V2000
  -29.5933   18.0723  -30.3027 C   0  0  0  0  0  0  0  0  0  0  0  0
  -30.1603   18.6261  -28.9626 C   0  0  2  0  0  0  0  0  0  0  0  0
  -29.9188   17.7841  -27.9314 O   0  0  0  0  0  0  0  0  0  0  0  0
  -28.9276   17.5577  -27.0322 C   0  0  0  0  0  0  0  0  0  0  0  0
  -28.1138   18.6643  -26.6552 C   0  0  0  0  0  0  0  0  0  0  0  0
  -27.0928   18.5485  -25.7617 C   0  0  0  0  0  0  0  0  0  0  0  0
  -26.7680   17.3558  -25.1545 C   0  0  0  0  0  0  0  0  0  0  0  0
  -25.4526   17.2247  -24.0086 S   0  0  0  0  0  6  0  0  0  0  0  0
  -24.1745   16.1586  -24.5532 C   0  0  0  0  0  0  0  0  0  0  0  0
  -26.0150   16.7171  -22.7027 O   0  0  0  0  0  0  0  0  0  0  0  0
  -24.8488   18.5833  -23.7185 O   0  0  0  0  0  0  0  0  0  0  0  0
  -27.5426   16.2819  -25.5076 C   0  0  0  0  0  0  0  0  0  0  0  0
  -28.6033   16.3742  -26.4279 C   0  0  0  0  0  0  0  0  0  0  0  0
  -29.3656   15.1626  -26.7314 C   0  0  0  0  0  0  0  0  0  0  0  0
  -28.9000   14.3544  -27.5810 O   0  0  0  0  0  0  0  0  0  0  0  0
  -30.6112   14.9090  -26.0779 N   0  0  0  0  0  0  0  0  0  0  0  0
  -31.3077   15.9552  -25.3731 C   0  0  0  0  0  0  0  0  0  0  0  0
  -32.2505   15.3370  -24.3719 C   0  0  0  0  0  0  0  0  0  0  0  0
  -33.1767   14.4677  -25.0694 N   0  0  0  0  0  0  0  0  0  0  0  0
  -34.5054   14.3187  -24.5817 C   0  0  0  0  0  0  0  0  0  0  0  0
  -34.9589   15.0469  -23.5398 N   0  0  0  0  0  0  0  0  0  0  0  0
  -36.2213   14.9022  -23.0799 C   0  0  0  0  0  0  0  0  0  0  0  0
  -37.1181   14.0138  -23.6360 C   0  0  0  0  0  0  0  0  0  0  0  0
  -38.5040   13.8616  -23.1238 C   0  0  0  0  0  0  0  0  0  0  0  0
  -38.4579   14.1320  -21.7665 F   0  0  0  0  0  0  0  0  0  0  0  0
  -38.8762   12.5376  -23.3353 F   0  0  0  0  0  0  0  0  0  0  0  0
  -39.3604   14.7088  -23.7952 F   0  0  0  0  0  0  0  0  0  0  0  0
  -36.6834   13.2533  -24.7050 C   0  0  0  0  0  0  0  0  0  0  0  0
  -35.3928   13.4241  -25.1494 C   0  0  0  0  0  0  0  0  0  0  0  0
  -34.9564   12.6776  -26.2035 F   0  0  0  0  0  0  0  0  0  0  0  0
  -32.7009   13.7773  -26.2520 C   0  0  0  0  0  0  0  0  0  0  0  0
  -31.1875   13.5850  -26.1204 C   0  0  0  0  0  0  0  0  0  0  0  0
  -31.6771   18.6859  -29.2233 C   0  0  0  0  0  0  0  0  0  0  0  0
  -32.1060   17.4294  -29.5872 F   0  0  0  0  0  0  0  0  0  0  0  0
  -31.8913   19.6350  -30.1899 F   0  0  0  0  0  0  0  0  0  0  0  0
  -32.2922   19.0118  -28.0255 F   0  0  0  0  0  0  0  0  0  0  0  0
  2  1  1  6
  2  3  1  0
  3  4  1  0
  4  5  2  0
  5  6  1  0
  6  7  2  0
  7  8  1  0
  8  9  1  0
  8 10  2  0
  8 11  2  0
  7 12  1  0
 12 13  2  0
 13 14  1  0
 14 15  2  0
 14 16  1  0
 16 17  1  0
 17 18  1  0
 18 19  1  0
 19 20  1  0
 20 21  2  0
 21 22  1  0
 22 23  2  0
 23 24  1  0
 24 25  1  0
 24 26  1  0
 24 27  1  0
 23 28  1  0
 28 29  2  0
 29 30  1  0
 19 31  1  0
 31 32  1  0
  2 33  1  0
 33 34  1  0
 33 35  1  0
 33 36  1  0
 13  4  1  0
 32 16  1  0
 29 20  1  0
M  END
$$$$
