
     RDKit          3D

 21 22  0  0  0  0  0  0  0  0999 V2000
  -29.2453   21.5188  -26.7586 C   0  0  0  0  0  0  0  0  0  0  0  0
  -28.3977   21.1613  -27.9617 C   0  0  0  0  0  0  0  0  0  0  0  0
  -28.4707   22.2622  -28.9787 C   0  0  0  0  0  0  0  0  0  0  0  0
  -29.5876   22.0427  -29.9311 C   0  0  0  0  0  0  0  0  0  0  0  0
  -30.2685   23.0165  -30.3161 O   0  0  0  0  0  0  0  0  0  0  0  0
  -29.8017   20.6949  -30.3442 N   0  0  0  0  0  0  0  0  0  0  0  0
  -29.3130   19.6610  -29.5651 N   0  0  0  0  0  0  0  0  0  0  0  0
  -28.6689   19.8113  -28.4761 C   0  0  0  0  0  0  0  0  0  0  0  0
  -28.2254   18.6021  -27.7866 C   0  0  0  0  0  0  0  0  0  0  0  0
  -28.4007   17.3717  -28.3721 C   0  0  0  0  0  0  0  0  0  0  0  0
  -28.0020   16.1975  -27.7703 C   0  0  0  0  0  0  0  0  0  0  0  0
  -27.4023   16.1972  -26.5385 C   0  0  0  0  0  0  0  0  0  0  0  0
  -26.9513   14.9722  -25.9932 N   0  0  0  0  0  0  0  0  0  0  0  0
  -27.3556   13.6561  -26.3675 C   0  0  0  0  0  0  0  0  0  0  0  0
  -26.4181   12.9835  -27.3300 C   0  0  0  0  0  0  0  0  0  0  0  0
  -26.7808   11.7067  -27.6241 O   0  0  0  0  0  0  0  0  0  0  0  0
  -27.2086   17.4071  -25.9174 C   0  0  0  0  0  0  0  0  0  0  0  0
  -26.6073   17.5388  -24.6561 N   0  0  0  0  0  4  0  0  0  0  0  0
  -26.4839   16.5878  -23.8932 O   0  0  0  0  0  0  0  0  0  0  0  0
  -26.1743   18.7808  -24.2603 O   0  0  0  0  0  1  0  0  0  0  0  0
  -27.6231   18.5996  -26.5505 C   0  0  0  0  0  0  0  0  0  0  0  0
  1  2  1  0
  2  3  1  0
  3  4  1  0
  4  5  2  0
  4  6  1  0
  6  7  1  0
  7  8  2  0
  8  9  1  0
  9 10  2  0
 10 11  1  0
 11 12  2  0
 12 13  1  0
 13 14  1  0
 14 15  1  0
 15 16  1  0
 12 17  1  0
 17 18  1  0
 18 19  2  0
 18 20  1  0
 17 21  2  0
  8  2  1  0
 21  9  1  0
M  CHG  2  18   1  20  -1
M  END
$$$$
