
     RDKit          3D

 16 16  0  0  0  0  0  0  0  0999 V2000
  -22.6232    1.0262  -32.0389 C   0  0  0  0  0  0  0  0  0  0  0  0
  -21.3385    0.8690  -32.7464 C   0  0  0  0  0  0  0  0  0  0  0  0
  -20.0924    1.3000  -32.0171 C   0  0  0  0  0  0  0  0  0  0  0  0
  -20.2216    0.5822  -30.6374 C   0  0  0  0  0  0  0  0  0  0  0  0
  -20.2133    2.7680  -31.6519 C   0  0  0  0  0  0  0  0  0  0  0  0
  -18.8352    0.9300  -32.6505 C   0  0  0  0  0  0  0  0  0  0  0  0
  -18.2732    1.9279  -33.2930 O   0  0  0  0  0  0  0  0  0  0  0  0
  -18.1155   -0.2475  -32.7131 N   0  0  0  0  0  0  0  0  0  0  0  0
  -18.6218   -1.3183  -31.9581 O   0  0  0  0  0  0  0  0  0  0  0  0
  -16.8843   -0.5952  -33.3560 C   0  0  0  0  0  0  0  0  0  0  0  0
  -15.6948   -0.2918  -32.4785 C   0  0  0  0  0  0  0  0  0  0  0  0
  -15.2857    0.9878  -32.2202 C   0  0  0  0  0  0  0  0  0  0  0  0
  -14.1884    1.2375  -31.3853 C   0  0  0  0  0  0  0  0  0  0  0  0
  -13.5558    0.1455  -30.8497 C   0  0  0  0  0  0  0  0  0  0  0  0
  -13.9629   -1.1396  -31.1070 C   0  0  0  0  0  0  0  0  0  0  0  0
  -15.0403   -1.3634  -31.9273 C   0  0  0  0  0  0  0  0  0  0  0  0
  1  2  1  0
  2  3  1  0
  3  4  1  0
  3  5  1  0
  3  6  1  0
  6  7  2  0
  6  8  1  0
  8  9  1  0
  8 10  1  0
 10 11  1  0
 11 12  2  0
 12 13  1  0
 13 14  2  0
 14 15  1  0
 15 16  2  0
 16 11  1  0
M  END
$$$$
