
     RDKit          3D

 20 20  0  0  0  0  0  0  0  0999 V2000
  -32.4804   14.5087  -25.9678 C   0  0  0  0  0  0  0  0  0  0  0  0
  -31.1325   14.5131  -25.2981 C   0  0  0  0  0  0  0  0  0  0  0  0
  -30.4627   15.8344  -25.3352 C   0  0  0  0  0  0  0  0  0  0  0  0
  -29.2549   16.0223  -24.5055 C   0  0  0  0  0  0  0  0  0  0  0  0
  -28.9587   15.0123  -23.4578 C   0  0  0  0  0  0  0  0  0  0  0  0
  -30.2025   16.3059  -26.6111 O   0  0  0  0  0  0  0  0  0  0  0  0
  -29.2581   17.3162  -26.6829 C   0  0  2  0  0  0  0  0  0  0  0  0
  -29.9931   18.5948  -26.8765 C   0  0  0  0  0  0  0  0  0  0  0  0
  -30.4836   18.9007  -28.0696 C   0  0  0  0  0  0  0  0  0  0  0  0
  -31.1993   20.0937  -28.3507 C   0  0  0  0  0  0  0  0  0  0  0  0
  -31.4454   20.9309  -27.4460 O   0  0  0  0  0  0  0  0  0  0  0  0
  -31.6367   20.3395  -29.6550 O   0  0  0  0  0  0  0  0  0  0  0  0
  -30.2295   17.9075  -29.1874 C   0  0  0  0  0  0  0  0  0  0  0  0
  -28.7397   17.6747  -29.1115 C   0  0  2  0  0  0  0  0  0  0  0  0
  -28.2647   16.9350  -30.2761 N   0  0  0  0  0  0  0  0  0  0  0  0
  -28.3565   17.0295  -27.8442 C   0  0  1  0  0  0  0  0  0  0  0  0
  -26.9563   17.2821  -27.4995 N   0  0  0  0  0  0  0  0  0  0  0  0
  -26.0493   16.2140  -27.3476 C   0  0  0  0  0  0  0  0  0  0  0  0
  -24.7177   16.3890  -26.6780 C   0  0  0  0  0  0  0  0  0  0  0  0
  -26.3415   15.0732  -27.7768 O   0  0  0  0  0  0  0  0  0  0  0  0
  1  2  1  0
  2  3  1  0
  3  4  1  0
  4  5  1  0
  3  6  1  0
  7  6  1  6
  7  8  1  0
  8  9  2  0
  9 10  1  0
 10 11  2  0
 10 12  1  0
  9 13  1  0
 13 14  1  0
 14 15  1  6
 14 16  1  0
 16 17  1  1
 17 18  1  0
 18 19  1  0
 18 20  2  0
 16  7  1  0
M  END
$$$$
