
     RDKit          3D

 31 35  0  0  0  0  0  0  0  0999 V2000
  -31.2603   19.0830  -31.5452 C   0  0  0  0  0  0  0  0  0  0  0  0
  -31.2087   18.7586  -30.1707 O   0  0  0  0  0  0  0  0  0  0  0  0
  -30.6735   19.6249  -29.2114 C   0  0  0  0  0  0  0  0  0  0  0  0
  -29.9416   20.7014  -29.6819 C   0  0  0  0  0  0  0  0  0  0  0  0
  -29.4132   21.5565  -28.7439 C   0  0  0  0  0  0  0  0  0  0  0  0
  -29.6089   21.3426  -27.3948 C   0  0  0  0  0  0  0  0  0  0  0  0
  -30.3434   20.2593  -26.9694 C   0  0  0  0  0  0  0  0  0  0  0  0
  -30.8796   19.3949  -27.8746 C   0  0  0  0  0  0  0  0  0  0  0  0
  -31.6531   18.2543  -27.4284 C   0  0  0  0  0  0  0  0  0  0  0  0
  -33.0026   18.0653  -27.6405 C   0  0  0  0  0  0  0  0  0  0  0  0
  -33.9783   18.9396  -28.3500 C   0  0  0  0  0  0  0  0  0  0  0  0
  -33.2689   16.8765  -27.0490 N   0  0  0  0  0  0  0  0  0  0  0  0
  -32.1818   16.3909  -26.5272 O   0  0  0  0  0  0  0  0  0  0  0  0
  -31.1550   17.1819  -26.7218 C   0  0  0  0  0  0  0  0  0  0  0  0
  -29.7412   16.9429  -26.2592 C   0  0  0  0  0  0  0  0  0  0  0  0
  -29.0950   22.1723  -26.4739 N   0  0  0  0  0  0  0  0  0  0  0  0
  -28.3758   23.2348  -26.8315 C   0  0  0  0  0  0  0  0  0  0  0  0
  -28.1510   23.4939  -28.1625 C   0  0  0  0  0  0  0  0  0  0  0  0
  -27.4840   24.4614  -28.8132 N   0  0  0  0  0  0  0  0  0  0  0  0
  -27.5847   24.2323  -30.1230 C   0  0  0  0  0  0  0  0  0  0  0  0
  -27.0726   24.9528  -31.0045 O   0  0  0  0  0  0  0  0  0  0  0  0
  -28.3242   23.1037  -30.3525 N   0  0  0  0  0  0  0  0  0  0  0  0
  -28.5844   22.6370  -31.6496 C   0  0  2  0  0  0  0  0  0  0  0  0
  -27.8422   23.4035  -32.7609 C   0  0  0  0  0  0  0  0  0  0  0  0
  -30.0471   22.8969  -31.9902 C   0  0  0  0  0  0  0  0  0  0  0  0
  -30.7323   23.9535  -31.4383 C   0  0  0  0  0  0  0  0  0  0  0  0
  -32.0764   24.1682  -31.7550 C   0  0  0  0  0  0  0  0  0  0  0  0
  -32.6882   23.2984  -32.6278 C   0  0  0  0  0  0  0  0  0  0  0  0
  -31.9840   22.2568  -33.1615 C   0  0  0  0  0  0  0  0  0  0  0  0
  -30.6956   22.0900  -32.8286 N   0  0  0  0  0  0  0  0  0  0  0  0
  -28.6723   22.6495  -29.1454 C   0  0  0  0  0  0  0  0  0  0  0  0
  1  2  1  0
  2  3  1  0
  3  4  2  0
  4  5  1  0
  5  6  2  0
  6  7  1  0
  7  8  2  0
  8  9  1  0
  9 10  1  0
 10 11  1  0
 10 12  2  0
 12 13  1  0
 13 14  1  0
 14 15  1  0
  6 16  1  0
 16 17  2  0
 17 18  1  0
 18 19  1  0
 19 20  1  0
 20 21  2  0
 20 22  1  0
 22 23  1  0
 23 24  1  6
 23 25  1  0
 25 26  2  0
 26 27  1  0
 27 28  2  0
 28 29  1  0
 29 30  2  0
 22 31  1  0
  8  3  1  0
 14  9  2  0
 31 18  2  0
 31  5  1  0
 30 25  1  0
M  END
$$$$
