
     RDKit          3D

 32 34  0  0  0  0  0  0  0  0999 V2000
   -8.4011   16.1343  -43.5599 C   0  0  0  0  0  0  0  0  0  0  0  0
   -9.7044   15.8542  -42.8754 C   0  0  0  0  0  0  0  0  0  0  0  0
  -10.0626   16.7350  -41.7494 C   0  0  0  0  0  0  0  0  0  0  0  0
  -11.3900   16.5253  -41.1148 C   0  0  0  0  0  0  0  0  0  0  0  0
  -11.6251   17.1322  -39.7872 C   0  0  0  0  0  0  0  0  0  0  0  0
  -12.9872   16.8423  -39.2963 N   0  0  0  0  0  0  0  0  0  0  0  0
  -13.8525   17.8326  -38.7726 C   0  0  0  0  0  0  0  0  0  0  0  0
  -13.6663   19.0460  -39.0732 O   0  0  0  0  0  0  0  0  0  0  0  0
  -14.9252   17.4869  -37.9162 N   0  0  0  0  0  0  0  0  0  0  0  0
  -15.3015   16.1478  -37.5659 C   0  0  0  0  0  0  0  0  0  0  0  0
  -16.2639   16.2574  -36.4145 C   0  0  0  0  0  0  0  0  0  0  0  0
  -16.5323   17.7244  -36.1793 C   0  0  0  0  0  0  0  0  0  0  0  0
  -17.9605   18.0672  -36.2686 C   0  0  0  0  0  0  0  0  0  0  0  0
  -18.8641   17.6388  -35.2936 N   0  0  0  0  0  0  0  0  0  0  0  0
  -19.5372   16.4219  -35.5433 C   0  0  0  0  0  0  0  0  0  0  0  0
  -20.7748   16.5551  -36.3620 C   0  0  0  0  0  0  0  0  0  0  0  0
  -21.5408   15.3963  -36.4887 C   0  0  0  0  0  0  0  0  0  0  0  0
  -22.7035   15.4334  -37.2276 C   0  0  0  0  0  0  0  0  0  0  0  0
  -23.0848   16.6132  -37.8255 C   0  0  0  0  0  0  0  0  0  0  0  0
  -24.5570   16.6439  -38.7566 Cl  0  0  0  0  0  0  0  0  0  0  0  0
  -22.3111   17.7596  -37.6902 C   0  0  0  0  0  0  0  0  0  0  0  0
  -21.1287   17.7363  -36.9430 C   0  0  0  0  0  0  0  0  0  0  0  0
  -19.2160   18.4272  -34.2061 C   0  0  0  0  0  0  0  0  0  0  0  0
  -18.1748   18.2420  -33.1072 C   0  0  0  0  0  0  0  0  0  0  0  0
  -17.1586   19.0001  -32.7551 C   0  0  0  0  0  0  0  0  0  0  0  0
  -16.3581   18.6378  -31.7299 C   0  0  0  0  0  0  0  0  0  0  0  0
  -16.6723   17.4562  -31.1003 C   0  0  0  0  0  0  0  0  0  0  0  0
  -16.0330   16.7964  -29.9916 N   0  0  0  0  0  4  0  0  0  0  0  0
  -15.3409   15.8281  -30.2470 O   0  0  0  0  0  0  0  0  0  0  0  0
  -16.1911   17.2306  -28.7102 O   0  0  0  0  0  1  0  0  0  0  0  0
  -18.0971   16.9066  -31.9946 S   0  0  0  0  0  0  0  0  0  0  0  0
  -15.7917   18.4543  -37.2819 C   0  0  0  0  0  0  0  0  0  0  0  0
  1  2  1  0
  2  3  1  0
  3  4  1  0
  4  5  1  0
  5  6  1  0
  6  7  1  0
  7  8  2  0
  7  9  1  0
  9 10  1  0
 10 11  1  0
 11 12  1  0
 12 13  1  0
 13 14  1  0
 14 15  1  0
 15 16  1  0
 16 17  2  0
 17 18  1  0
 18 19  2  0
 19 20  1  0
 19 21  1  0
 21 22  2  0
 14 23  1  0
 23 24  1  0
 24 25  2  0
 25 26  1  0
 26 27  2  0
 27 28  1  0
 28 29  2  0
 28 30  1  0
 27 31  1  0
 12 32  1  0
 32  9  1  0
 22 16  1  0
 31 24  1  0
M  CHG  2  28   1  30  -1
M  END
$$$$
