
     RDKit          3D

 14 13  0  0  0  0  0  0  0  0999 V2000
  -33.4625   14.0739  -24.9454 N   0  0  0  0  0  0  0  0  0  0  0  0
  -32.3895   14.5582  -25.7904 C   0  0  0  0  0  0  0  0  0  0  0  0
  -32.5370   16.0924  -25.7714 C   0  0  0  0  0  0  0  0  0  0  0  0
  -31.9270   16.5173  -27.1254 C   0  0  0  0  0  0  0  0  0  0  0  0
  -30.8507   17.3908  -26.7974 N   0  0  0  0  0  0  0  0  0  0  0  0
  -30.1582   17.9760  -27.8899 C   0  0  0  0  0  0  0  0  0  0  0  0
  -29.1576   19.0049  -27.3523 C   0  0  0  0  0  0  0  0  0  0  0  0
  -27.8495   18.8059  -28.0906 C   0  0  0  0  0  0  0  0  0  0  0  0
  -26.7709   19.7417  -27.6286 C   0  0  0  0  0  0  0  0  0  0  0  0
  -26.0534   20.3327  -28.7231 N   0  0  0  0  0  0  0  0  0  0  0  0
  -24.9772   19.5086  -29.1911 C   0  0  0  0  0  0  0  0  0  0  0  0
  -23.6576   20.2093  -29.2120 C   0  0  0  0  0  0  0  0  0  0  0  0
  -23.2080   20.3742  -30.6731 C   0  0  0  0  0  0  0  0  0  0  0  0
  -22.4593   19.2310  -31.1337 N   0  0  0  0  0  0  0  0  0  0  0  0
  1  2  1  0
  2  3  1  0
  3  4  1  0
  4  5  1  0
  5  6  1  0
  6  7  1  0
  7  8  1  0
  8  9  1  0
  9 10  1  0
 10 11  1  0
 11 12  1  0
 12 13  1  0
 13 14  1  0
M  END
$$$$
