
     RDKit          3D

 29 31  0  0  0  0  0  0  0  0999 V2000
  -28.6750   13.7708  -24.0231 C   0  0  0  0  0  0  0  0  0  0  0  0
  -29.5406   14.8820  -24.1143 O   0  0  0  0  0  0  0  0  0  0  0  0
  -29.3104   15.8606  -25.0366 C   0  0  0  0  0  0  0  0  0  0  0  0
  -28.2091   15.7438  -25.8773 C   0  0  0  0  0  0  0  0  0  0  0  0
  -27.9681   16.6996  -26.7956 C   0  0  0  0  0  0  0  0  0  0  0  0
  -28.8426   17.7969  -26.8820 C   0  0  0  0  0  0  0  0  0  0  0  0
  -29.9238   17.9549  -26.0798 C   0  0  0  0  0  0  0  0  0  0  0  0
  -30.7430   19.0500  -26.1732 O   0  0  0  0  0  0  0  0  0  0  0  0
  -31.8160   19.1258  -27.1089 C   0  0  0  0  0  0  0  0  0  0  0  0
  -30.1601   16.9709  -25.1473 C   0  0  0  0  0  0  0  0  0  0  0  0
  -31.2416   17.0876  -24.3232 O   0  0  0  0  0  0  0  0  0  0  0  0
  -32.2751   16.1751  -24.1287 C   0  0  0  0  0  0  0  0  0  0  0  0
  -28.7798   18.8592  -27.8770 C   0  0  0  0  0  0  0  0  0  0  0  0
  -30.1195   19.0590  -28.1339 C   0  0  0  0  0  0  0  0  0  0  0  0
  -30.6620   20.1976  -28.6705 C   0  0  0  0  0  0  0  0  0  0  0  0
  -30.0005   21.3288  -29.1834 C   0  0  0  0  0  0  0  0  0  0  0  0
  -30.7900   22.3353  -29.7184 O   0  0  0  0  0  0  0  0  0  0  0  0
  -31.6441   22.1354  -30.8228 C   0  0  0  0  0  0  0  0  0  0  0  0
  -28.6441   21.5720  -29.2243 C   0  0  0  0  0  0  0  0  0  0  0  0
  -28.3054   22.7370  -29.5617 O   0  0  0  0  0  0  0  0  0  0  0  0
  -27.5794   20.7207  -28.9477 C   0  0  0  0  0  0  0  0  0  0  0  0
  -27.6388   19.4508  -28.4261 C   0  0  0  0  0  0  0  0  0  0  0  0
  -26.2881   18.8516  -28.5872 C   0  0  1  0  0  0  0  0  0  0  0  0
  -25.2751   19.8346  -28.8205 N   0  0  0  0  0  0  0  0  0  0  0  0
  -24.5477   19.8737  -30.0373 C   0  0  0  0  0  0  0  0  0  0  0  0
  -24.6488   18.8119  -31.0782 C   0  0  0  0  0  0  0  0  0  0  0  0
  -23.7883   20.8547  -30.2309 O   0  0  0  0  0  0  0  0  0  0  0  0
  -25.9192   17.8503  -27.5429 C   0  0  0  0  0  0  0  0  0  0  0  0
  -26.7333   16.5437  -27.6352 C   0  0  0  0  0  0  0  0  0  0  0  0
  1  2  1  0
  2  3  1  0
  3  4  2  0
  4  5  1  0
  5  6  2  0
  6  7  1  0
  7  8  1  0
  8  9  1  0
  7 10  2  0
 10 11  1  0
 11 12  1  0
  6 13  1  0
 13 14  2  0
 14 15  1  0
 15 16  2  0
 16 17  1  0
 17 18  1  0
 16 19  1  0
 19 20  2  0
 19 21  1  0
 21 22  2  0
 22 23  1  0
 23 24  1  1
 24 25  1  0
 25 26  1  0
 25 27  2  0
 23 28  1  0
 28 29  1  0
 10  3  1  0
 22 13  1  0
 29  5  1  0
M  END
$$$$
