
     RDKit          3D

 20 22  0  0  0  0  0  0  0  0999 V2000
  -16.8777   42.5448  -19.5779 N   0  0  0  0  0  0  0  0  0  0  0  0
  -17.3034   41.8381  -20.7356 C   0  0  0  0  0  0  0  0  0  0  0  0
  -17.3199   42.4013  -21.9567 N   0  0  0  0  0  0  0  0  0  0  0  0
  -17.7183   41.7558  -23.0718 C   0  0  0  0  0  0  0  0  0  0  0  0
  -17.7037   42.5867  -24.6387 Cl  0  0  0  0  0  0  0  0  0  0  0  0
  -18.1245   40.4778  -22.9738 N   0  0  0  0  0  0  0  0  0  0  0  0
  -18.1412   39.8390  -21.8025 C   0  0  0  0  0  0  0  0  0  0  0  0
  -17.7256   40.5246  -20.6636 C   0  0  0  0  0  0  0  0  0  0  0  0
  -17.8434   39.6633  -19.6583 N   0  0  0  0  0  0  0  0  0  0  0  0
  -18.3090   38.4995  -20.1462 C   0  0  0  0  0  0  0  0  0  0  0  0
  -18.5059   38.5707  -21.4742 N   0  0  0  0  0  0  0  0  0  0  0  0
  -18.9889   37.5650  -22.3815 C   0  0  2  0  0  0  0  0  0  0  0  0
  -19.3612   36.4170  -21.6597 O   0  0  0  0  0  0  0  0  0  0  0  0
  -19.5325   35.5014  -22.6926 C   0  0  2  0  0  0  0  0  0  0  0  0
  -19.7580   34.1431  -22.0745 C   0  0  0  0  0  0  0  0  0  0  0  0
  -18.8152   33.8655  -21.0880 O   0  0  0  0  0  0  0  0  0  0  0  0
  -18.2445   35.6049  -23.4388 C   0  0  1  0  0  0  0  0  0  0  0  0
  -18.3944   35.2493  -24.7935 O   0  0  0  0  0  0  0  0  0  0  0  0
  -17.9435   37.0887  -23.3555 C   0  0  2  0  0  0  0  0  0  0  0  0
  -16.6655   37.3229  -22.9015 F   0  0  0  0  0  0  0  0  0  0  0  0
  1  2  1  0
  2  3  2  0
  3  4  1  0
  4  5  1  0
  4  6  2  0
  6  7  1  0
  7  8  2  0
  8  9  1  0
  9 10  2  0
 10 11  1  0
 12 11  1  1
 12 13  1  0
 13 14  1  0
 14 15  1  1
 15 16  1  0
 14 17  1  0
 17 18  1  6
 17 19  1  0
 19 20  1  1
  8  2  1  0
 19 12  1  0
 11  7  1  0
M  END
$$$$
