
     RDKit          3D

 31 35  0  0  0  0  0  0  0  0999 V2000
  -17.4467   34.1357  -20.1777 O   0  0  0  0  0  0  0  0  0  0  0  0
  -18.0528   34.8197  -21.0346 C   0  0  0  0  0  0  0  0  0  0  0  0
  -19.1246   34.2679  -21.6885 C   0  0  0  0  0  0  0  0  0  0  0  0
  -19.8040   34.9985  -22.6315 C   0  0  0  0  0  0  0  0  0  0  0  0
  -19.3813   36.2804  -22.8945 C   0  0  0  0  0  0  0  0  0  0  0  0
  -20.0353   37.0679  -23.8490 C   0  0  0  0  0  0  0  0  0  0  0  0
  -19.6047   38.3434  -24.1077 C   0  0  0  0  0  0  0  0  0  0  0  0
  -18.5254   38.9054  -23.4526 C   0  0  0  0  0  0  0  0  0  0  0  0
  -18.1422   40.1845  -23.7569 O   0  0  0  0  0  0  0  0  0  0  0  0
  -17.5293   40.9869  -22.7469 C   0  0  0  0  0  0  0  0  0  0  0  0
  -17.8975   42.4352  -22.9265 C   0  0  0  0  0  0  0  0  0  0  0  0
  -18.0100   43.1885  -21.6288 C   0  0  0  0  0  0  0  0  0  0  0  0
  -18.1103   44.6981  -21.9306 C   0  0  0  0  0  0  0  0  0  0  0  0
  -17.1588   45.4240  -21.1917 N   0  0  0  0  0  0  0  0  0  0  0  0
  -16.9496   45.1148  -19.8365 C   0  0  0  0  0  0  0  0  0  0  0  0
  -16.2412   46.2836  -19.1237 C   0  0  0  0  0  0  0  0  0  0  0  0
  -17.0145   47.4908  -19.3898 N   0  0  0  0  0  0  0  0  0  0  0  0
  -17.4201   48.3423  -18.2999 C   0  0  0  0  0  0  0  0  0  0  0  0
  -16.6045   48.4451  -17.2020 C   0  0  0  0  0  0  0  0  0  0  0  0
  -16.8632   49.2199  -16.0932 C   0  0  0  0  0  0  0  0  0  0  0  0
  -18.0461   49.9346  -16.1277 C   0  0  0  0  0  0  0  0  0  0  0  0
  -18.8704   49.8339  -17.2321 C   0  0  0  0  0  0  0  0  0  0  0  0
  -20.4357   50.6188  -17.5726 S   0  0  0  0  0  0  0  0  0  0  0  0
  -20.6533   49.8290  -19.2429 C   0  0  0  0  0  0  0  0  0  0  0  0
  -19.5278   49.0793  -19.3315 C   0  0  0  0  0  0  0  0  0  0  0  0
  -18.6258   49.0698  -18.3361 C   0  0  0  0  0  0  0  0  0  0  0  0
  -17.3558   47.7852  -20.7580 C   0  0  0  0  0  0  0  0  0  0  0  0
  -16.8555   46.7164  -21.6644 C   0  0  0  0  0  0  0  0  0  0  0  0
  -17.8731   38.1236  -22.5019 C   0  0  0  0  0  0  0  0  0  0  0  0
  -18.3075   36.8367  -22.2413 C   0  0  0  0  0  0  0  0  0  0  0  0
  -17.6697   36.0879  -21.3248 N   0  0  0  0  0  0  0  0  0  0  0  0
  1  2  2  0
  2  3  1  0
  3  4  2  0
  4  5  1  0
  5  6  2  0
  6  7  1  0
  7  8  2  0
  8  9  1  0
  9 10  1  0
 10 11  1  0
 11 12  1  0
 12 13  1  0
 13 14  1  0
 14 15  1  0
 15 16  1  0
 16 17  1  0
 17 18  1  0
 18 19  2  0
 19 20  1  0
 20 21  2  0
 21 22  1  0
 22 23  1  0
 23 24  1  0
 24 25  2  0
 25 26  1  0
 17 27  1  0
 27 28  1  0
  8 29  1  0
 29 30  2  0
 30 31  1  0
 31  2  1  0
 30  5  1  0
 28 14  1  0
 26 18  1  0
 26 22  2  0
M  END
$$$$
