
     RDKit          3D

 25 26  0  0  0  0  0  0  0  0999 V2000
  -12.0373   43.6067  -19.4789 C   0  0  0  0  0  0  0  0  0  0  0  0
  -13.2877   44.0391  -18.7876 C   0  0  0  0  0  0  0  0  0  0  0  0
  -14.4411   43.3712  -19.2597 O   0  0  0  0  0  0  0  0  0  0  0  0
  -15.4125   44.0113  -20.0121 C   0  0  0  0  0  0  0  0  0  0  0  0
  -15.2084   45.2443  -20.2404 O   0  0  0  0  0  0  0  0  0  0  0  0
  -16.6230   43.3395  -20.5340 C   0  0  2  0  0  0  0  0  0  0  0  0
  -16.2950   42.4476  -21.7089 C   0  0  0  0  0  0  0  0  0  0  0  0
  -17.2938   41.3625  -21.9072 C   0  0  0  0  0  0  0  0  0  0  0  0
  -18.4885   41.5964  -22.5662 C   0  0  0  0  0  0  0  0  0  0  0  0
  -19.4273   40.6053  -22.7583 C   0  0  0  0  0  0  0  0  0  0  0  0
  -19.2221   39.3217  -22.3003 C   0  0  0  0  0  0  0  0  0  0  0  0
  -20.1925   38.2890  -22.4965 N   0  0  0  0  0  4  0  0  0  0  0  0
  -21.3215   38.5646  -22.9408 O   0  0  0  0  0  0  0  0  0  0  0  0
  -19.9219   36.9766  -22.2078 O   0  0  0  0  0  1  0  0  0  0  0  0
  -18.0350   39.0825  -21.6435 C   0  0  0  0  0  0  0  0  0  0  0  0
  -17.0960   40.0751  -21.4518 C   0  0  0  0  0  0  0  0  0  0  0  0
  -17.6059   44.3412  -20.8716 N   0  0  0  0  0  0  0  0  0  0  0  0
  -18.6130   44.7218  -19.9664 C   0  0  0  0  0  0  0  0  0  0  0  0
  -18.7535   43.9722  -18.9408 O   0  0  0  0  0  0  0  0  0  0  0  0
  -19.4729   45.8648  -20.1102 C   0  0  0  0  0  0  0  0  0  0  0  0
  -18.9984   47.0130  -20.6995 C   0  0  0  0  0  0  0  0  0  0  0  0
  -19.8335   48.1024  -20.8315 C   0  0  0  0  0  0  0  0  0  0  0  0
  -21.1328   48.0468  -20.3787 C   0  0  0  0  0  0  0  0  0  0  0  0
  -21.6131   46.9188  -19.7949 C   0  0  0  0  0  0  0  0  0  0  0  0
  -20.7672   45.8248  -19.6649 C   0  0  0  0  0  0  0  0  0  0  0  0
  1  2  1  0
  2  3  1  0
  3  4  1  0
  4  5  2  0
  4  6  1  0
  6  7  1  6
  7  8  1  0
  8  9  2  0
  9 10  1  0
 10 11  2  0
 11 12  1  0
 12 13  2  0
 12 14  1  0
 11 15  1  0
 15 16  2  0
  6 17  1  0
 17 18  1  0
 18 19  2  0
 18 20  1  0
 20 21  2  0
 21 22  1  0
 22 23  2  0
 23 24  1  0
 24 25  2  0
 16  8  1  0
 25 20  1  0
M  CHG  2  12   1  14  -1
M  END
$$$$
