
     RDKit          3D

 30 34  0  0  0  0  0  0  0  0999 V2000
  -15.6496   20.1488  -34.2271 C   0  0  0  0  0  0  0  0  0  0  0  0
  -15.6938   19.0111  -33.2809 C   0  0  0  0  0  0  0  0  0  0  0  0
  -15.9740   19.2716  -31.9494 C   0  0  0  0  0  0  0  0  0  0  0  0
  -16.0144   18.2068  -31.0690 C   0  0  0  0  0  0  0  0  0  0  0  0
  -15.7787   16.9201  -31.5221 C   0  0  0  0  0  0  0  0  0  0  0  0
  -15.5017   16.7019  -32.8632 C   0  0  0  0  0  0  0  0  0  0  0  0
  -15.4570   17.7514  -33.7569 C   0  0  0  0  0  0  0  0  0  0  0  0
  -15.1733   17.4452  -35.1229 N   0  0  0  0  0  0  0  0  0  0  0  0
  -16.1401   17.0790  -35.9558 C   0  0  0  0  0  0  0  0  0  0  0  0
  -17.5712   16.9504  -35.5204 C   0  0  0  0  0  0  0  0  0  0  0  0
  -18.3594   17.9524  -36.2101 N   0  0  0  0  0  0  0  0  0  0  0  0
  -18.1070   18.6716  -37.3017 C   0  0  0  0  0  0  0  0  0  0  0  0
  -19.1567   19.4946  -37.5866 N   0  0  0  0  0  0  0  0  0  0  0  0
  -20.1068   19.3032  -36.6605 C   0  0  0  0  0  0  0  0  0  0  0  0
  -21.3549   19.8507  -36.4544 C   0  0  0  0  0  0  0  0  0  0  0  0
  -21.8976   20.8410  -37.3162 N   0  0  0  0  0  0  0  0  0  0  0  0
  -22.0774   19.4297  -35.4018 N   0  0  0  0  0  0  0  0  0  0  0  0
  -21.6064   18.4852  -34.5464 C   0  0  0  0  0  0  0  0  0  0  0  0
  -20.3858   17.9701  -34.7736 N   0  0  0  0  0  0  0  0  0  0  0  0
  -19.6029   18.3434  -35.8094 C   0  0  0  0  0  0  0  0  0  0  0  0
  -15.8173   16.8037  -37.2567 N   0  0  0  0  0  0  0  0  0  0  0  0
  -14.5411   16.9103  -37.6525 C   0  0  0  0  0  0  0  0  0  0  0  0
  -14.2580   16.6223  -38.9778 C   0  0  0  0  0  0  0  0  0  0  0  0
  -12.9530   16.7226  -39.4169 C   0  0  0  0  0  0  0  0  0  0  0  0
  -11.9691   17.0997  -38.5507 C   0  0  0  0  0  0  0  0  0  0  0  0
  -12.2111   17.3944  -37.2250 C   0  0  0  0  0  0  0  0  0  0  0  0
  -11.1527   17.8058  -36.2706 C   0  0  0  0  0  0  0  0  0  0  0  0
  -13.5270   17.2912  -36.7906 C   0  0  0  0  0  0  0  0  0  0  0  0
  -13.8772   17.5627  -35.4879 C   0  0  0  0  0  0  0  0  0  0  0  0
  -13.0196   17.9144  -34.6417 O   0  0  0  0  0  0  0  0  0  0  0  0
  1  2  1  0
  2  3  2  0
  3  4  1  0
  4  5  2  0
  5  6  1  0
  6  7  2  0
  7  8  1  0
  8  9  1  0
  9 10  1  0
 10 11  1  0
 11 12  1  0
 12 13  2  0
 13 14  1  0
 14 15  2  0
 15 16  1  0
 15 17  1  0
 17 18  2  0
 18 19  1  0
 19 20  2  0
  9 21  2  0
 21 22  1  0
 22 23  2  0
 23 24  1  0
 24 25  2  0
 25 26  1  0
 26 27  1  0
 26 28  2  0
 28 29  1  0
 29 30  2  0
  7  2  1  0
 29  8  1  0
 20 11  1  0
 28 22  1  0
 20 14  1  0
M  END
$$$$
