
     RDKit          3D

 34 37  0  0  0  0  0  0  0  0999 V2000
  -17.2529   14.3164  -29.9914 C   0  0  0  0  0  0  0  0  0  0  0  0
  -15.8432   14.3558  -30.4678 C   0  0  0  0  0  0  0  0  0  0  0  0
  -15.5155   15.5602  -31.3139 C   0  0  0  0  0  0  0  0  0  0  0  0
  -15.4548   15.2601  -32.7714 C   0  0  0  0  0  0  0  0  0  0  0  0
  -15.2133   16.4869  -33.4998 N   0  0  0  0  0  0  0  0  0  0  0  0
  -16.2948   17.2962  -33.9571 C   0  0  0  0  0  0  0  0  0  0  0  0
  -16.1829   18.6013  -34.1193 N   0  0  0  0  0  0  0  0  0  0  0  0
  -17.2133   19.3620  -34.5594 C   0  0  0  0  0  0  0  0  0  0  0  0
  -18.4464   18.7856  -34.8612 C   0  0  0  0  0  0  0  0  0  0  0  0
  -19.5294   19.6251  -35.3569 C   0  0  0  0  0  0  0  0  0  0  0  0
  -20.3347   20.1895  -34.6034 O   0  0  0  0  0  0  0  0  0  0  0  0
  -19.7551   19.8698  -36.7525 N   0  0  0  0  0  0  0  0  0  0  0  0
  -19.2345   21.0116  -37.4727 C   0  0  0  0  0  0  0  0  0  0  0  0
  -19.9586   21.1342  -38.7510 C   0  0  0  0  0  0  0  0  0  0  0  0
  -21.2600   20.6694  -38.8426 C   0  0  0  0  0  0  0  0  0  0  0  0
  -21.9571   20.7605  -40.0337 C   0  0  0  0  0  0  0  0  0  0  0  0
  -21.3772   21.3151  -41.1605 C   0  0  0  0  0  0  0  0  0  0  0  0
  -22.1086   21.4019  -42.3737 N   0  0  0  0  0  0  0  0  0  0  0  0
  -21.6561   21.0864  -43.6069 C   0  0  0  0  0  0  0  0  0  0  0  0
  -22.6673   21.3063  -44.5310 C   0  0  0  0  0  0  0  0  0  0  0  0
  -23.7261   21.7566  -43.8304 N   0  0  0  0  0  0  0  0  0  0  0  0
  -23.3787   21.8108  -42.5291 C   0  0  0  0  0  0  0  0  0  0  0  0
  -20.0812   21.7705  -41.0459 C   0  0  0  0  0  0  0  0  0  0  0  0
  -19.3650   21.6843  -39.8475 C   0  0  0  0  0  0  0  0  0  0  0  0
  -18.5562   17.4299  -34.6900 C   0  0  0  0  0  0  0  0  0  0  0  0
  -19.7500   16.7423  -34.9549 N   0  0  0  0  0  0  0  0  0  0  0  0
  -19.8090   15.3120  -34.6302 C   0  0  1  0  0  0  0  0  0  0  0  0
  -21.1941   14.8607  -34.2794 C   0  0  0  0  0  0  0  0  0  0  0  0
  -21.8429   14.0680  -35.3938 C   0  0  0  0  0  0  0  0  0  0  0  0
  -21.5281   14.6663  -36.7495 C   0  0  2  0  0  0  0  0  0  0  0  0
  -22.1434   13.9029  -37.7142 O   0  0  0  0  0  0  0  0  0  0  0  0
  -20.0376   14.7044  -36.9928 C   0  0  0  0  0  0  0  0  0  0  0  0
  -19.2406   14.4773  -35.7486 C   0  0  0  0  0  0  0  0  0  0  0  0
  -17.4579   16.7212  -34.2366 N   0  0  0  0  0  0  0  0  0  0  0  0
  1  2  1  0
  2  3  1  0
  3  4  1  0
  4  5  1  0
  5  6  1  0
  6  7  2  0
  7  8  1  0
  8  9  2  0
  9 10  1  0
 10 11  2  0
 10 12  1  0
 12 13  1  0
 13 14  1  0
 14 15  2  0
 15 16  1  0
 16 17  2  0
 17 18  1  0
 18 19  1  0
 19 20  2  0
 20 21  1  0
 21 22  2  0
 17 23  1  0
 23 24  2  0
  9 25  1  0
 25 26  1  0
 27 26  1  6
 27 28  1  0
 28 29  1  0
 29 30  1  0
 30 31  1  6
 30 32  1  0
 32 33  1  0
 25 34  2  0
 34  6  1  0
 24 14  1  0
 33 27  1  0
 22 18  1  0
M  END
$$$$
