
     RDKit          3D

 34 37  0  0  0  0  0  0  0  0999 V2000
  -24.3417   11.1912  -35.1489 C   0  0  0  0  0  0  0  0  0  0  0  0
  -25.0613   12.2335  -34.5679 O   0  0  0  0  0  0  0  0  0  0  0  0
  -24.6330   13.5413  -34.6591 C   0  0  0  0  0  0  0  0  0  0  0  0
  -23.8633   14.0006  -35.6989 C   0  0  0  0  0  0  0  0  0  0  0  0
  -23.4397   15.3252  -35.7722 C   0  0  0  0  0  0  0  0  0  0  0  0
  -23.7939   16.2362  -34.7733 C   0  0  0  0  0  0  0  0  0  0  0  0
  -24.5557   15.8055  -33.7306 C   0  0  0  0  0  0  0  0  0  0  0  0
  -24.9530   16.7119  -32.6339 C   0  0  0  0  0  0  0  0  0  0  0  0
  -23.9072   17.0669  -31.7275 N   0  0  0  0  0  0  0  0  0  0  0  0
  -23.3020   18.3426  -31.7694 C   0  0  0  0  0  0  0  0  0  0  0  0
  -23.3158   19.0734  -30.7248 O   0  0  0  0  0  0  0  0  0  0  0  0
  -22.6475   18.9100  -32.9256 C   0  0  0  0  0  0  0  0  0  0  0  0
  -21.4266   18.5209  -33.2813 N   0  0  0  0  0  0  0  0  0  0  0  0
  -20.8524   19.0527  -34.3176 C   0  0  0  0  0  0  0  0  0  0  0  0
  -19.2052   18.7470  -35.1161 S   0  0  0  0  0  0  0  0  0  0  0  0
  -19.3979   19.9419  -36.4492 C   0  0  0  0  0  0  0  0  0  0  0  0
  -20.6591   20.4735  -36.2023 C   0  0  0  0  0  0  0  0  0  0  0  0
  -21.1444   21.5573  -37.1533 C   0  0  0  0  0  0  0  0  0  0  0  0
  -21.9046   21.0872  -38.1674 O   0  0  0  0  0  0  0  0  0  0  0  0
  -21.4155   20.1566  -39.0180 C   0  0  0  0  0  0  0  0  0  0  0  0
  -21.4569   20.5589  -40.4563 C   0  0  0  0  0  0  0  0  0  0  0  0
  -20.7358   21.6563  -40.8446 C   0  0  0  0  0  0  0  0  0  0  0  0
  -20.7489   22.0659  -42.1585 C   0  0  0  0  0  0  0  0  0  0  0  0
  -21.4680   21.4140  -43.1222 C   0  0  0  0  0  0  0  0  0  0  0  0
  -21.4818   21.8357  -44.5281 C   0  0  0  0  0  0  0  0  0  0  0  0
  -21.3386   23.0513  -44.8334 O   0  0  0  0  0  0  0  0  0  0  0  0
  -21.6509   20.9086  -45.5185 O   0  0  0  0  0  0  0  0  0  0  0  0
  -22.1940   20.3005  -42.7051 C   0  0  0  0  0  0  0  0  0  0  0  0
  -22.1973   19.8641  -41.3818 C   0  0  0  0  0  0  0  0  0  0  0  0
  -21.3554   20.0306  -35.1633 C   0  0  0  0  0  0  0  0  0  0  0  0
  -22.6673   20.4187  -34.7455 C   0  0  0  0  0  0  0  0  0  0  0  0
  -23.3318   21.2871  -35.3520 O   0  0  0  0  0  0  0  0  0  0  0  0
  -23.2376   19.8611  -33.6827 N   0  0  0  0  0  0  0  0  0  0  0  0
  -24.9702   14.4699  -33.6769 C   0  0  0  0  0  0  0  0  0  0  0  0
  1  2  1  0
  2  3  1  0
  3  4  2  0
  4  5  1  0
  5  6  2  0
  6  7  1  0
  7  8  1  0
  8  9  1  0
  9 10  1  0
 10 11  2  0
 10 12  1  0
 12 13  2  0
 13 14  1  0
 14 15  1  0
 15 16  1  0
 16 17  2  0
 17 18  1  0
 18 19  1  0
 19 20  1  0
 20 21  1  0
 21 22  2  0
 22 23  1  0
 23 24  2  0
 24 25  1  0
 25 26  2  0
 25 27  1  0
 24 28  1  0
 28 29  2  0
 17 30  1  0
 30 31  1  0
 31 32  2  0
 31 33  1  0
  7 34  2  0
 34  3  1  0
 33 12  1  0
 30 14  2  0
 29 21  1  0
M  END
$$$$
