
     RDKit          3D

 36 40  0  0  0  0  0  0  0  0999 V2000
  -22.8093   38.5425  -30.1031 C   0  0  0  0  0  0  0  0  0  0  0  0
  -22.5837   39.0904  -28.7730 N   0  0  0  0  0  0  0  0  0  0  0  0
  -23.8118   38.7719  -28.0248 C   0  0  0  0  0  0  0  0  0  0  0  0
  -21.4437   38.4323  -28.1367 C   0  0  0  0  0  0  0  0  0  0  0  0
  -21.2259   39.0427  -26.7634 C   0  0  2  0  0  0  0  0  0  0  0  0
  -20.8332   40.4959  -26.8733 C   0  0  0  0  0  0  0  0  0  0  0  0
  -21.4142   41.3324  -25.7253 C   0  0  0  0  0  0  0  0  0  0  0  0
  -20.4915   41.3836  -24.6029 N   0  0  0  0  0  0  0  0  0  0  0  0
  -20.3888   40.5683  -23.5343 C   0  0  0  0  0  0  0  0  0  0  0  0
  -19.3399   40.9983  -22.7879 C   0  0  0  0  0  0  0  0  0  0  0  0
  -18.7758   42.1352  -23.4358 C   0  0  0  0  0  0  0  0  0  0  0  0
  -17.6912   42.9636  -23.1220 C   0  0  0  0  0  0  0  0  0  0  0  0
  -17.3666   44.0022  -23.9502 C   0  0  0  0  0  0  0  0  0  0  0  0
  -18.1113   44.2201  -25.0847 C   0  0  0  0  0  0  0  0  0  0  0  0
  -19.1804   43.4220  -25.4178 C   0  0  0  0  0  0  0  0  0  0  0  0
  -19.5150   42.3559  -24.5690 C   0  0  0  0  0  0  0  0  0  0  0  0
  -18.7526   40.4510  -21.5130 C   0  0  0  0  0  0  0  0  0  0  0  0
  -18.4538   39.1666  -21.3269 C   0  0  0  0  0  0  0  0  0  0  0  0
  -17.8995   38.9716  -19.9949 C   0  0  0  0  0  0  0  0  0  0  0  0
  -17.4909   37.8746  -19.4525 O   0  0  0  0  0  0  0  0  0  0  0  0
  -17.8686   40.2330  -19.3423 N   0  0  0  0  0  0  0  0  0  0  0  0
  -18.3987   41.1461  -20.2877 C   0  0  0  0  0  0  0  0  0  0  0  0
  -18.5149   42.4016  -20.0085 O   0  0  0  0  0  0  0  0  0  0  0  0
  -18.7364   38.1084  -22.3760 C   0  0  0  0  0  0  0  0  0  0  0  0
  -18.4483   38.1029  -23.7041 C   0  0  0  0  0  0  0  0  0  0  0  0
  -18.9350   36.9603  -24.2303 N   0  0  0  0  0  0  0  0  0  0  0  0
  -19.5422   36.2171  -23.2332 C   0  0  0  0  0  0  0  0  0  0  0  0
  -20.1944   34.9729  -23.2599 C   0  0  0  0  0  0  0  0  0  0  0  0
  -20.7122   34.4790  -22.0988 C   0  0  0  0  0  0  0  0  0  0  0  0
  -20.5963   35.1887  -20.9264 C   0  0  0  0  0  0  0  0  0  0  0  0
  -19.9633   36.4048  -20.8809 C   0  0  0  0  0  0  0  0  0  0  0  0
  -19.4343   36.9098  -22.0613 C   0  0  0  0  0  0  0  0  0  0  0  0
  -18.9160   36.5050  -25.6117 C   0  0  0  0  0  0  0  0  0  0  0  0
  -19.9974   37.0807  -26.4853 C   0  0  0  0  0  0  0  0  0  0  0  0
  -20.1243   38.4081  -26.1573 O   0  0  0  0  0  0  0  0  0  0  0  0
  -20.3975   39.1819  -25.2895 Cl  0  0  0  0  0  0  0  0  0  0  0  0
  1  2  1  0
  2  3  1  0
  2  4  1  0
  5  4  1  6
  5  6  1  0
  6  7  1  0
  7  8  1  0
  8  9  1  0
  9 10  2  0
 10 11  1  0
 11 12  2  0
 12 13  1  0
 13 14  2  0
 14 15  1  0
 15 16  2  0
 10 17  1  0
 17 18  2  0
 18 19  1  0
 19 20  2  0
 19 21  1  0
 21 22  1  0
 22 23  2  0
 18 24  1  0
 24 25  2  0
 25 26  1  0
 26 27  1  0
 27 28  2  0
 28 29  1  0
 29 30  2  0
 30 31  1  0
 31 32  2  0
 26 33  1  0
 33 34  1  0
 34 35  1  0
 35  5  1  0
 16  8  1  0
 22 17  1  0
 32 24  1  0
 16 11  1  0
 32 27  1  0
M  END
$$$$
