
     RDKit          3D

 26 30  0  0  0  0  0  0  0  0999 V2000
  -18.5394   32.6132  -23.7450 C   0  0  0  0  0  0  0  0  0  0  0  0
  -18.2235   34.0713  -23.5759 C   0  0  0  0  0  0  0  0  0  0  0  0
  -19.1940   34.8069  -22.6859 C   0  0  1  0  0  0  0  0  0  0  0  0
  -20.3141   35.0938  -23.4951 O   0  0  0  0  0  0  0  0  0  0  0  0
  -19.6142   33.9110  -21.5968 C   0  0  0  0  0  0  0  0  0  0  0  0
  -20.6100   33.1614  -21.7812 O   0  0  0  0  0  0  0  0  0  0  0  0
  -18.9159   33.9142  -20.4161 O   0  0  0  0  0  0  0  0  0  0  0  0
  -17.9434   34.8511  -20.0964 C   0  0  0  0  0  0  0  0  0  0  0  0
  -18.0294   36.0762  -20.9114 C   0  0  0  0  0  0  0  0  0  0  0  0
  -18.6227   36.0562  -22.1424 C   0  0  0  0  0  0  0  0  0  0  0  0
  -18.7160   37.2067  -22.9358 C   0  0  0  0  0  0  0  0  0  0  0  0
  -18.1781   38.3680  -22.4142 C   0  0  0  0  0  0  0  0  0  0  0  0
  -17.5920   38.4202  -21.2150 N   0  0  0  0  0  0  0  0  0  0  0  0
  -17.5113   37.2940  -20.4605 C   0  0  0  0  0  0  0  0  0  0  0  0
  -16.9706   37.2893  -19.3266 O   0  0  0  0  0  0  0  0  0  0  0  0
  -17.1218   39.7650  -20.9305 C   0  0  0  0  0  0  0  0  0  0  0  0
  -17.5039   40.5370  -22.1316 C   0  0  0  0  0  0  0  0  0  0  0  0
  -17.3435   41.8811  -22.4950 C   0  0  0  0  0  0  0  0  0  0  0  0
  -17.8336   42.2697  -23.7228 C   0  0  0  0  0  0  0  0  0  0  0  0
  -17.6901   43.6053  -24.1171 C   0  0  0  0  0  0  0  0  0  0  0  0
  -18.1710   44.0202  -25.3393 C   0  0  0  0  0  0  0  0  0  0  0  0
  -18.8029   43.1648  -26.2165 C   0  0  0  0  0  0  0  0  0  0  0  0
  -18.9475   41.8488  -25.8345 C   0  0  0  0  0  0  0  0  0  0  0  0
  -18.4646   41.4094  -24.5957 C   0  0  0  0  0  0  0  0  0  0  0  0
  -18.6011   40.1287  -24.2150 N   0  0  0  0  0  0  0  0  0  0  0  0
  -18.1342   39.7099  -23.0202 C   0  0  0  0  0  0  0  0  0  0  0  0
  1  2  1  0
  2  3  1  0
  3  4  1  6
  3  5  1  0
  5  6  2  0
  5  7  1  0
  7  8  1  0
  8  9  1  0
  9 10  2  0
 10 11  1  0
 11 12  2  0
 12 13  1  0
 13 14  1  0
 14 15  2  0
 13 16  1  0
 16 17  1  0
 17 18  2  0
 18 19  1  0
 19 20  2  0
 20 21  1  0
 21 22  2  0
 22 23  1  0
 23 24  2  0
 24 25  1  0
 25 26  2  0
 10  3  1  0
 26 12  1  0
 14  9  1  0
 26 17  1  0
 24 19  1  0
M  END
$$$$
