
     RDKit          3D

 22 22  0  0  0  0  0  0  0  0999 V2000
  -17.5567   39.5698  -26.7400 C   0  0  0  0  0  0  0  0  0  0  0  0
  -18.4369   39.4145  -25.5194 C   0  0  0  0  0  0  0  0  0  0  0  0
  -19.4286   38.3107  -25.7512 C   0  0  0  0  0  0  0  0  0  0  0  0
  -20.2829   38.5297  -26.8743 N   0  0  0  0  0  0  0  0  0  0  0  0
  -20.9565   39.7383  -27.0392 C   0  0  0  0  0  0  0  0  0  0  0  0
  -21.9977   40.1345  -26.0414 C   0  0  0  0  0  0  0  0  0  0  0  0
  -21.7009   39.6722  -28.3924 C   0  0  0  0  0  0  0  0  0  0  0  0
  -20.0169   37.6602  -24.5580 C   0  0  0  0  0  0  0  0  0  0  0  0
  -21.0578   38.2571  -23.9246 O   0  0  0  0  0  0  0  0  0  0  0  0
  -19.0431   36.9608  -23.6875 C   0  0  0  0  0  0  0  0  0  0  0  0
  -18.6215   35.6619  -23.9993 C   0  0  0  0  0  0  0  0  0  0  0  0
  -17.7210   34.9487  -23.2443 C   0  0  0  0  0  0  0  0  0  0  0  0
  -17.1900   35.5117  -22.1207 C   0  0  0  0  0  0  0  0  0  0  0  0
  -16.2822   34.7702  -21.3750 O   0  0  0  0  0  0  0  0  0  0  0  0
  -17.5601   36.7743  -21.7624 C   0  0  0  0  0  0  0  0  0  0  0  0
  -17.0262   37.3021  -20.6534 N   0  0  0  0  0  0  0  0  0  0  0  0
  -17.3567   38.5588  -20.2383 C   0  0  0  0  0  0  0  0  0  0  0  0
  -16.7774   39.0602  -19.0843 O   0  0  0  0  0  0  0  0  0  0  0  0
  -18.2580   39.2727  -20.9945 C   0  0  0  0  0  0  0  0  0  0  0  0
  -18.8035   38.7296  -22.1308 C   0  0  0  0  0  0  0  0  0  0  0  0
  -18.4754   37.4707  -22.5500 C   0  0  0  0  0  0  0  0  0  0  0  0
  -18.9377   38.0785  -23.8193 Cl  0  0  0  0  0  0  0  0  0  0  0  0
  1  2  1  0
  2  3  1  0
  3  4  1  0
  4  5  1  0
  5  6  1  0
  5  7  1  0
  3  8  1  0
  8  9  1  0
  8 10  1  0
 10 11  2  0
 11 12  1  0
 12 13  2  0
 13 14  1  0
 13 15  1  0
 15 16  2  0
 16 17  1  0
 17 18  1  0
 17 19  2  0
 19 20  1  0
 20 21  2  0
 21 10  1  0
 21 15  1  0
M  END
$$$$
