
     RDKit          3D

 21 22  0  0  0  0  0  0  0  0999 V2000
  -15.9279   40.5373  -21.4753 C   0  0  0  0  0  0  0  0  0  0  0  0
  -17.1767   40.7622  -22.7254 S   0  0  0  0  0  6  0  0  0  0  0  0
  -16.6011   40.5215  -24.0999 O   0  0  0  0  0  0  0  0  0  0  0  0
  -17.6334   42.1909  -22.6847 O   0  0  0  0  0  0  0  0  0  0  0  0
  -18.4849   39.6845  -22.5171 N   0  0  0  0  0  0  0  0  0  0  0  0
  -18.2933   38.2545  -22.5734 C   0  0  0  0  0  0  0  0  0  0  0  0
  -17.8931   37.6226  -21.4098 C   0  0  0  0  0  0  0  0  0  0  0  0
  -17.6912   36.2595  -21.3914 C   0  0  0  0  0  0  0  0  0  0  0  0
  -17.9073   35.5874  -22.5720 C   0  0  0  0  0  0  0  0  0  0  0  0
  -17.7000   34.1598  -22.5684 N   0  0  0  0  0  4  0  0  0  0  0  0
  -17.3397   33.5537  -21.5531 O   0  0  0  0  0  0  0  0  0  0  0  0
  -17.9026   33.4316  -23.7148 O   0  0  0  0  0  1  0  0  0  0  0  0
  -18.3063   36.2026  -23.7404 C   0  0  0  0  0  0  0  0  0  0  0  0
  -18.5062   37.5653  -23.7511 C   0  0  0  0  0  0  0  0  0  0  0  0
  -18.8983   38.2700  -24.8449 O   0  0  0  0  0  0  0  0  0  0  0  0
  -20.1576   38.4799  -25.3730 C   0  0  0  0  0  0  0  0  0  0  0  0
  -20.3638   37.9117  -26.7502 C   0  0  0  0  0  0  0  0  0  0  0  0
  -21.3677   38.7819  -27.4760 C   0  0  0  0  0  0  0  0  0  0  0  0
  -20.6122   40.0400  -27.9178 C   0  0  0  0  0  0  0  0  0  0  0  0
  -19.9236   40.5965  -26.7007 C   0  0  0  0  0  0  0  0  0  0  0  0
  -20.4177   39.9676  -25.4267 C   0  0  0  0  0  0  0  0  0  0  0  0
  1  2  1  0
  2  3  2  0
  2  4  2  0
  2  5  1  0
  5  6  1  0
  6  7  2  0
  7  8  1  0
  8  9  2  0
  9 10  1  0
 10 11  2  0
 10 12  1  0
  9 13  1  0
 13 14  2  0
 14 15  1  0
 15 16  1  0
 16 17  1  0
 17 18  1  0
 18 19  1  0
 19 20  1  0
 20 21  1  0
 14  6  1  0
 21 16  1  0
M  CHG  2  10   1  12  -1
M  END
$$$$
