
     RDKit          3D

 27 27  0  0  0  0  0  0  0  0999 V2000
    4.1847   26.1626  -15.8270 C   0  0  0  0  0  0  0  0  0  0  0  0
    4.8120   24.7891  -15.8715 C   0  0  0  0  0  0  0  0  0  0  0  0
    5.7923   24.6596  -16.8778 N   0  0  0  0  0  0  0  0  0  0  0  0
    7.0053   25.3751  -16.7442 C   0  0  0  0  0  0  0  0  0  0  0  0
    6.9492   26.8513  -16.8667 C   0  0  0  0  0  0  0  0  0  0  0  0
    5.9167   23.3203  -17.3943 C   0  0  0  0  0  0  0  0  0  0  0  0
    4.7050   23.0060  -18.1431 C   0  0  0  0  0  0  0  0  0  0  0  0
    3.7123   22.7457  -18.7814 C   0  0  0  0  0  0  0  0  0  0  0  0
    2.5204   22.4447  -19.5690 C   0  0  0  0  0  0  0  0  0  0  0  0
    2.1169   21.0698  -19.4192 O   0  0  0  0  0  0  0  0  0  0  0  0
    3.0004   20.0462  -19.6365 C   0  0  0  0  0  0  0  0  0  0  0  0
    4.2092   20.3034  -19.9584 O   0  0  0  0  0  0  0  0  0  0  0  0
    2.6684   18.5852  -19.5254 C   0  0  0  0  0  0  0  0  0  0  0  0
    3.8097   17.8137  -19.2741 O   0  0  0  0  0  0  0  0  0  0  0  0
    1.6829   18.3843  -18.4721 C   0  0  0  0  0  0  0  0  0  0  0  0
    1.8309   19.1571  -17.3061 C   0  0  0  0  0  0  0  0  0  0  0  0
    0.9395   19.0026  -16.2812 C   0  0  0  0  0  0  0  0  0  0  0  0
   -0.1273   18.1224  -16.2992 C   0  0  0  0  0  0  0  0  0  0  0  0
   -0.2406   17.3823  -17.4555 C   0  0  0  0  0  0  0  0  0  0  0  0
    0.6308   17.5000  -18.5170 C   0  0  0  0  0  0  0  0  0  0  0  0
    2.2387   18.1958  -20.9384 C   0  0  0  0  0  0  0  0  0  0  0  0
    1.0674   18.9102  -21.4589 C   0  0  0  0  0  0  0  0  0  0  0  0
   -0.1330   18.1204  -21.8133 C   0  0  0  0  0  0  0  0  0  0  0  0
    0.1566   16.7873  -22.3849 C   0  0  0  0  0  0  0  0  0  0  0  0
    1.5998   16.4500  -22.5315 C   0  0  0  0  0  0  0  0  0  0  0  0
    2.3823   16.7649  -21.2633 C   0  0  0  0  0  0  0  0  0  0  0  0
    3.2756   21.3208  -18.5340 Cl  0  0  0  0  0  0  0  0  0  0  0  0
  1  2  1  0
  2  3  1  0
  3  4  1  0
  4  5  1  0
  3  6  1  0
  6  7  1  0
  7  8  3  0
  8  9  1  0
  9 10  1  0
 10 11  1  0
 11 12  2  0
 11 13  1  0
 13 14  1  0
 13 15  1  0
 15 16  2  0
 16 17  1  0
 17 18  2  0
 18 19  1  0
 19 20  2  0
 13 21  1  0
 21 22  1  0
 22 23  1  0
 23 24  1  0
 24 25  1  0
 25 26  1  0
 20 15  1  0
 26 21  1  0
M  END
$$$$
