
     RDKit          3D

 31 34  0  0  0  0  0  0  0  0999 V2000
  -21.2500   14.3803  -36.3724 C   0  0  0  0  0  0  0  0  0  0  0  0
  -20.8693   15.7004  -35.8316 C   0  0  0  0  0  0  0  0  0  0  0  0
  -21.6806   16.1642  -34.9274 O   0  0  0  0  0  0  0  0  0  0  0  0
  -19.7826   16.4841  -36.1564 N   0  0  0  0  0  0  0  0  0  0  0  0
  -19.8554   17.4656  -37.2520 C   0  0  0  0  0  0  0  0  0  0  0  0
  -21.0853   18.0113  -37.5137 C   0  0  0  0  0  0  0  0  0  0  0  0
  -21.1959   18.9469  -38.5643 C   0  0  0  0  0  0  0  0  0  0  0  0
  -20.0693   19.2773  -39.2849 C   0  0  0  0  0  0  0  0  0  0  0  0
  -20.2266   20.2537  -40.3701 C   0  0  0  0  0  0  0  0  0  0  0  0
  -20.5952   21.5439  -40.1058 C   0  0  0  0  0  0  0  0  0  0  0  0
  -20.7457   22.4674  -41.1061 C   0  0  0  0  0  0  0  0  0  0  0  0
  -20.5164   22.0725  -42.4111 C   0  0  0  0  0  0  0  0  0  0  0  0
  -20.6805   23.0707  -43.4764 C   0  0  0  0  0  0  0  0  0  0  0  0
  -21.7927   23.6470  -43.5644 O   0  0  0  0  0  0  0  0  0  0  0  0
  -19.6520   23.3617  -44.3445 O   0  0  0  0  0  0  0  0  0  0  0  0
  -20.1447   20.7762  -42.6906 C   0  0  0  0  0  0  0  0  0  0  0  0
  -19.9998   19.8652  -41.6664 C   0  0  0  0  0  0  0  0  0  0  0  0
  -18.8575   18.6974  -38.9759 C   0  0  0  0  0  0  0  0  0  0  0  0
  -18.7150   17.7785  -37.9541 C   0  0  0  0  0  0  0  0  0  0  0  0
  -17.4356   17.1825  -37.6020 C   0  0  2  0  0  0  0  0  0  0  0  0
  -16.5306   17.0230  -38.7153 N   0  0  0  0  0  0  0  0  0  0  0  0
  -15.1280   17.1846  -38.6279 C   0  0  0  0  0  0  0  0  0  0  0  0
  -14.2835   16.7920  -39.6367 C   0  0  0  0  0  0  0  0  0  0  0  0
  -12.8971   16.9504  -39.5395 C   0  0  0  0  0  0  0  0  0  0  0  0
  -12.3493   17.5118  -38.4124 C   0  0  0  0  0  0  0  0  0  0  0  0
  -10.6134   17.6987  -38.3151 Cl  0  0  0  0  0  0  0  0  0  0  0  0
  -13.1795   17.9118  -37.3905 C   0  0  0  0  0  0  0  0  0  0  0  0
  -14.5417   17.7433  -37.5137 C   0  0  0  0  0  0  0  0  0  0  0  0
  -17.5812   15.9769  -36.7562 C   0  0  0  0  0  0  0  0  0  0  0  0
  -18.4801   16.3966  -35.5483 C   0  0  2  0  0  0  0  0  0  0  0  0
  -18.2654   15.4859  -34.4145 C   0  0  0  0  0  0  0  0  0  0  0  0
  1  2  1  0
  2  3  2  0
  2  4  1  0
  4  5  1  0
  5  6  2  0
  6  7  1  0
  7  8  2  0
  8  9  1  0
  9 10  2  0
 10 11  1  0
 11 12  2  0
 12 13  1  0
 13 14  2  0
 13 15  1  0
 12 16  1  0
 16 17  2  0
  8 18  1  0
 18 19  2  0
 19 20  1  0
 20 21  1  6
 21 22  1  0
 22 23  2  0
 23 24  1  0
 24 25  2  0
 25 26  1  0
 25 27  1  0
 27 28  2  0
 20 29  1  0
 29 30  1  0
 30 31  1  1
 30  4  1  0
 19  5  1  0
 28 22  1  0
 17  9  1  0
M  END
$$$$
