
     RDKit          3D

 30 33  0  0  0  0  0  0  0  0999 V2000
  -20.0925   52.1474  -16.0159 C   0  0  0  0  0  0  0  0  0  0  0  0
  -19.2940   51.8328  -17.1148 O   0  0  0  0  0  0  0  0  0  0  0  0
  -19.0442   50.5588  -17.5451 C   0  0  0  0  0  0  0  0  0  0  0  0
  -19.5664   49.4687  -16.8817 C   0  0  0  0  0  0  0  0  0  0  0  0
  -19.3087   48.1843  -17.3232 C   0  0  0  0  0  0  0  0  0  0  0  0
  -19.8394   47.1270  -16.6682 N   0  0  0  0  0  0  0  0  0  0  0  0
  -19.6405   45.8458  -17.0493 C   0  0  0  0  0  0  0  0  0  0  0  0
  -18.8609   45.6267  -18.1530 C   0  0  0  0  0  0  0  0  0  0  0  0
  -18.3144   46.6774  -18.8293 C   0  0  0  0  0  0  0  0  0  0  0  0
  -17.5285   46.4479  -19.9419 O   0  0  0  0  0  0  0  0  0  0  0  0
  -17.5505   45.1851  -20.5136 C   0  0  0  0  0  0  0  0  0  0  0  0
  -16.4310   44.3519  -20.5438 C   0  0  0  0  0  0  0  0  0  0  0  0
  -16.4398   43.1009  -21.1070 C   0  0  0  0  0  0  0  0  0  0  0  0
  -17.5910   42.6142  -21.6780 C   0  0  0  0  0  0  0  0  0  0  0  0
  -17.6606   41.3212  -22.2797 N   0  0  0  0  0  0  0  0  0  0  0  0
  -16.8192   40.2614  -21.8840 C   0  0  0  0  0  0  0  0  0  0  0  0
  -15.9089   40.5045  -21.0582 O   0  0  0  0  0  0  0  0  0  0  0  0
  -16.9363   38.9351  -22.3606 N   0  0  0  0  0  0  0  0  0  0  0  0
  -16.0368   37.8877  -21.9018 C   0  0  0  0  0  0  0  0  0  0  0  0
  -15.8684   36.6451  -22.7359 C   0  0  0  0  0  0  0  0  0  0  0  0
  -16.5535   36.6206  -21.3748 C   0  0  0  0  0  0  0  0  0  0  0  0
  -18.7162   43.4121  -21.6654 C   0  0  0  0  0  0  0  0  0  0  0  0
  -20.2287   42.8463  -22.3824 Cl  0  0  0  0  0  0  0  0  0  0  0  0
  -18.7058   44.6740  -21.0968 C   0  0  0  0  0  0  0  0  0  0  0  0
  -18.5281   47.9824  -18.4288 C   0  0  0  0  0  0  0  0  0  0  0  0
  -18.0201   49.0825  -19.0732 C   0  0  0  0  0  0  0  0  0  0  0  0
  -18.2578   50.3697  -18.6595 C   0  0  0  0  0  0  0  0  0  0  0  0
  -17.7074   51.5290  -19.3596 C   0  0  0  0  0  0  0  0  0  0  0  0
  -18.3017   52.8064  -19.2757 N   0  0  0  0  0  0  0  0  0  0  0  0
  -16.6808   51.3692  -20.0484 O   0  0  0  0  0  0  0  0  0  0  0  0
  1  2  1  0
  2  3  1  0
  3  4  2  0
  4  5  1  0
  5  6  2  0
  6  7  1  0
  7  8  2  0
  8  9  1  0
  9 10  1  0
 10 11  1  0
 11 12  2  0
 12 13  1  0
 13 14  2  0
 14 15  1  0
 15 16  1  0
 16 17  2  0
 16 18  1  0
 18 19  1  0
 19 20  1  0
 20 21  1  0
 14 22  1  0
 22 23  1  0
 22 24  2  0
  9 25  2  0
 25 26  1  0
 26 27  2  0
 27 28  1  0
 28 29  1  0
 28 30  2  0
 27  3  1  0
 25  5  1  0
 24 11  1  0
 21 19  1  0
M  END
$$$$
