
     RDKit          3D

 25 27  0  0  0  0  0  0  0  0999 V2000
  -17.7654   35.9812  -24.7946 C   0  0  0  0  0  0  0  0  0  0  0  0
  -19.0384   36.1603  -23.9310 C   0  0  1  0  0  0  0  0  0  0  0  0
  -18.8612   35.7267  -22.5617 C   0  0  0  0  0  0  0  0  0  0  0  0
  -18.2581   36.6160  -21.7067 N   0  0  0  0  0  0  0  0  0  0  0  0
  -18.0098   36.4004  -20.4230 C   0  0  0  0  0  0  0  0  0  0  0  0
  -18.3550   35.2355  -19.8622 N   0  0  0  0  0  0  0  0  0  0  0  0
  -18.9451   34.3283  -20.6381 C   0  0  0  0  0  0  0  0  0  0  0  0
  -19.2173   34.5342  -21.9942 C   0  0  0  0  0  0  0  0  0  0  0  0
  -19.8307   33.5871  -22.7019 F   0  0  0  0  0  0  0  0  0  0  0  0
  -19.5391   37.5349  -24.1864 C   0  0  2  0  0  0  0  0  0  0  0  0
  -20.8421   37.6050  -23.5971 O   0  0  0  0  0  0  0  0  0  0  0  0
  -19.8244   37.9134  -25.5910 C   0  0  0  0  0  0  0  0  0  0  0  0
  -20.8260   38.8354  -25.9253 N   0  0  0  0  0  0  0  0  0  0  0  0
  -22.1069   38.5627  -26.1767 C   0  0  0  0  0  0  0  0  0  0  0  0
  -22.7631   39.7077  -26.4183 N   0  0  0  0  0  0  0  0  0  0  0  0
  -21.8851   40.7122  -26.3174 C   0  0  0  0  0  0  0  0  0  0  0  0
  -20.7063   40.1477  -26.0143 N   0  0  0  0  0  0  0  0  0  0  0  0
  -18.7812   38.5638  -23.4147 C   0  0  0  0  0  0  0  0  0  0  0  0
  -17.4146   38.7471  -23.5669 C   0  0  0  0  0  0  0  0  0  0  0  0
  -16.6872   39.6714  -22.8273 C   0  0  0  0  0  0  0  0  0  0  0  0
  -17.3417   40.4482  -21.8963 C   0  0  0  0  0  0  0  0  0  0  0  0
  -16.6196   41.3486  -21.1780 F   0  0  0  0  0  0  0  0  0  0  0  0
  -18.6933   40.2993  -21.7148 C   0  0  0  0  0  0  0  0  0  0  0  0
  -19.3846   39.3624  -22.4768 C   0  0  0  0  0  0  0  0  0  0  0  0
  -20.7227   39.2710  -22.3045 F   0  0  0  0  0  0  0  0  0  0  0  0
  2  1  1  6
  2  3  1  0
  3  4  2  0
  4  5  1  0
  5  6  2  0
  6  7  1  0
  7  8  2  0
  8  9  1  0
  2 10  1  0
 10 11  1  1
 10 12  1  0
 12 13  1  0
 13 14  1  0
 14 15  2  0
 15 16  1  0
 16 17  2  0
 10 18  1  0
 18 19  2  0
 19 20  1  0
 20 21  2  0
 21 22  1  0
 21 23  1  0
 23 24  2  0
 24 25  1  0
  8  3  1  0
 17 13  1  0
 24 18  1  0
M  END
$$$$
