
     RDKit          3D

 38 43  0  0  0  0  0  0  0  0999 V2000
  -21.0462   16.3504  -36.9467 C   0  0  0  0  0  0  0  0  0  0  0  0
  -20.2538   17.6778  -36.7314 C   0  0  1  0  0  0  0  0  0  0  0  0
  -20.4377   18.6387  -37.7909 C   0  0  0  0  0  0  0  0  0  0  0  0
  -21.6992   19.3289  -38.0401 C   0  0  0  0  0  0  0  0  0  0  0  0
  -21.7695   20.0478  -39.3598 C   0  0  0  0  0  0  0  0  0  0  0  0
  -21.3667   19.1516  -40.5128 C   0  0  0  0  0  0  0  0  0  0  0  0
  -19.8988   18.8377  -40.2144 C   0  0  0  0  0  0  0  0  0  0  0  0
  -19.9084   17.9121  -39.0664 C   0  0  0  0  0  0  0  0  0  0  0  0
  -20.2831   17.9473  -35.3140 N   0  0  0  0  0  0  0  0  0  0  0  0
  -19.2218   17.8972  -34.3894 C   0  0  0  0  0  0  0  0  0  0  0  0
  -17.8809   17.4667  -34.8300 C   0  0  0  0  0  0  0  0  0  0  0  0
  -17.1239   18.5929  -35.2538 C   0  0  0  0  0  0  0  0  0  0  0  0
  -15.7898   18.4389  -35.4839 C   0  0  0  0  0  0  0  0  0  0  0  0
  -15.2183   17.3274  -35.3362 C   0  0  0  0  0  0  0  0  0  0  0  0
  -15.8685   16.1101  -34.9297 C   0  0  0  0  0  0  0  0  0  0  0  0
  -17.2649   16.3114  -34.6943 C   0  0  0  0  0  0  0  0  0  0  0  0
  -18.2805   14.7365  -34.2224 Br  0  0  0  0  0  0  0  0  0  0  0  0
  -13.8472   17.5014  -35.6290 O   0  0  0  0  0  0  0  0  0  0  0  0
  -13.6667   18.8153  -36.1139 C   0  0  0  0  0  0  0  0  0  0  0  0
  -14.8942   19.4984  -35.9109 O   0  0  0  0  0  0  0  0  0  0  0  0
  -19.8082   18.1035  -33.2779 N   0  0  0  0  0  0  0  0  0  0  0  0
  -21.1541   18.2834  -33.3218 C   0  0  0  0  0  0  0  0  0  0  0  0
  -22.0643   18.4145  -32.2818 C   0  0  0  0  0  0  0  0  0  0  0  0
  -23.3709   18.4313  -32.6332 C   0  0  0  0  0  0  0  0  0  0  0  0
  -24.4105   18.4620  -31.6309 C   0  0  0  0  0  0  0  0  0  0  0  0
  -25.5780   18.1750  -32.0603 O   0  0  0  0  0  0  0  0  0  0  0  0
  -24.2989   18.7657  -30.2183 N   0  0  0  0  0  0  0  0  0  0  0  0
  -25.5050   18.5501  -29.4661 C   0  0  0  0  0  0  0  0  0  0  0  0
  -25.3016   18.8105  -28.0748 C   0  0  0  0  0  0  0  0  0  0  0  0
  -26.2155   18.3463  -27.1522 C   0  0  0  0  0  0  0  0  0  0  0  0
  -27.2640   17.6731  -27.6052 C   0  0  0  0  0  0  0  0  0  0  0  0
  -27.9017   16.6333  -26.5570 C   0  0  0  0  0  0  0  0  0  0  0  0
  -28.3769   15.8205  -25.7360 N   0  0  0  0  0  0  0  0  0  0  0  0
  -27.5516   17.4062  -28.8862 C   0  0  0  0  0  0  0  0  0  0  0  0
  -26.6025   17.8774  -29.9003 C   0  0  0  0  0  0  0  0  0  0  0  0
  -23.7288   18.3445  -34.0099 C   0  0  0  0  0  0  0  0  0  0  0  0
  -22.8233   18.2183  -35.0290 C   0  0  0  0  0  0  0  0  0  0  0  0
  -21.4196   18.1746  -34.6308 C   0  0  0  0  0  0  0  0  0  0  0  0
  2  1  1  1
  2  3  1  0
  3  4  1  0
  4  5  1  0
  5  6  1  0
  6  7  1  0
  7  8  1  0
  2  9  1  0
  9 10  1  0
 10 11  1  0
 11 12  2  0
 12 13  1  0
 13 14  2  0
 14 15  1  0
 15 16  2  0
 16 17  1  0
 14 18  1  0
 18 19  1  0
 19 20  1  0
 10 21  2  0
 21 22  1  0
 22 23  2  0
 23 24  1  0
 24 25  1  0
 25 26  2  0
 25 27  1  0
 27 28  1  0
 28 29  2  0
 29 30  1  0
 30 31  2  0
 31 32  1  0
 32 33  3  0
 31 34  1  0
 34 35  2  0
 24 36  2  0
 36 37  1  0
 37 38  2  0
  8  3  1  0
 38  9  1  0
 16 11  1  0
 38 22  1  0
 20 13  1  0
 35 28  1  0
M  END
$$$$
