
     RDKit          3D

 13 12  0  0  0  0  0  0  0  0999 V2000
  -31.6801   15.9358  -29.5440 C   0  0  0  0  0  0  0  0  0  0  0  0
  -31.1925   17.1742  -28.8688 C   0  0  0  0  0  0  0  0  0  0  0  0
  -30.6299   16.9170  -27.5576 N   0  0  0  0  0  4  0  0  0  0  0  0
  -29.2494   16.5831  -27.7256 C   0  0  0  0  0  0  0  0  0  0  0  0
  -30.6750   18.1947  -26.8350 C   0  0  0  0  0  0  0  0  0  0  0  0
  -31.3744   15.9984  -26.8098 C   0  0  0  0  0  0  0  0  0  0  0  0
  -32.7476   15.9941  -26.9364 C   0  0  0  0  0  0  0  0  0  0  0  0
  -33.5432   15.0999  -26.2152 C   0  0  0  0  0  0  0  0  0  0  0  0
  -32.9122   14.2051  -25.3578 C   0  0  0  0  0  0  0  0  0  0  0  0
  -31.5396   14.1871  -25.2114 C   0  0  0  0  0  0  0  0  0  0  0  0
  -30.8937   13.3175  -24.3752 O   0  0  0  0  0  0  0  0  0  0  0  0
  -30.8096   15.0946  -25.9508 C   0  0  0  0  0  0  0  0  0  0  0  0
  -31.2439   16.0589  -27.1941 Cl  0  0  0  0  0 15  0  0  0  0  0  0
  1  2  1  0
  2  3  1  0
  3  4  1  0
  3  5  1  0
  3  6  1  0
  6  7  2  0
  7  8  1  0
  8  9  2  0
  9 10  1  0
 10 11  1  0
 10 12  2  0
 12  6  1  0
M  CHG  2   3   1  13  -1
M  END
$$$$
