
     RDKit          3D

 32 35  0  0  0  0  0  0  0  0999 V2000
  -27.2354   17.6134  -26.3935 C   0  0  0  0  0  0  0  0  0  0  0  0
  -27.1871   18.6880  -27.2875 O   0  0  0  0  0  0  0  0  0  0  0  0
  -26.3203   18.6822  -28.3944 C   0  0  0  0  0  0  0  0  0  0  0  0
  -25.7583   17.5079  -28.7993 C   0  0  0  0  0  0  0  0  0  0  0  0
  -24.9044   17.5015  -29.8896 C   0  0  0  0  0  0  0  0  0  0  0  0
  -24.5917   18.6344  -30.5922 C   0  0  0  0  0  0  0  0  0  0  0  0
  -23.6732   18.5709  -31.7499 C   0  0  0  0  0  0  0  0  0  0  0  0
  -24.1075   19.0510  -33.0194 C   0  0  0  0  0  0  0  0  0  0  0  0
  -22.6733   18.7495  -34.0101 S   0  0  0  0  0  0  0  0  0  0  0  0
  -21.6662   18.0131  -32.5875 C   0  0  0  0  0  0  0  0  0  0  0  0
  -20.3296   17.5752  -32.8772 N   0  0  0  0  0  0  0  0  0  0  0  0
  -20.0494   16.7063  -33.9859 C   0  0  0  0  0  0  0  0  0  0  0  0
  -20.9649   16.5330  -34.8309 O   0  0  0  0  0  0  0  0  0  0  0  0
  -18.7318   16.0369  -34.1326 C   0  0  1  0  0  0  0  0  0  0  0  0
  -18.8343   14.8889  -35.1288 C   0  0  0  0  0  0  0  0  0  0  0  0
  -19.1609   15.3768  -36.5099 C   0  0  0  0  0  0  0  0  0  0  0  0
  -18.3110   16.5589  -36.8517 C   0  0  0  0  0  0  0  0  0  0  0  0
  -17.1732   16.7032  -35.8330 C   0  0  0  0  0  0  0  0  0  0  0  0
  -17.7794   17.0070  -34.5750 N   0  0  0  0  0  0  0  0  0  0  0  0
  -16.6882   17.5150  -33.3718 S   0  0  0  0  0  6  0  0  0  0  0  0
  -15.9390   18.7368  -33.8235 O   0  0  0  0  0  0  0  0  0  0  0  0
  -17.4935   17.9211  -32.1575 O   0  0  0  0  0  0  0  0  0  0  0  0
  -15.6097   16.2378  -32.8603 C   0  0  0  0  0  0  0  0  0  0  0  0
  -16.0183   15.2962  -31.9388 C   0  0  0  0  0  0  0  0  0  0  0  0
  -15.1803   14.2803  -31.5229 C   0  0  0  0  0  0  0  0  0  0  0  0
  -13.8949   14.1586  -32.0089 C   0  0  0  0  0  0  0  0  0  0  0  0
  -13.0008   13.0586  -31.5525 C   0  0  0  0  0  0  0  0  0  0  0  0
  -13.4880   15.1009  -32.9301 C   0  0  0  0  0  0  0  0  0  0  0  0
  -14.3227   16.1220  -33.3516 C   0  0  0  0  0  0  0  0  0  0  0  0
  -22.4717   18.1081  -31.7308 N   0  0  0  0  0  0  0  0  0  0  0  0
  -25.1600   19.8106  -30.1798 C   0  0  0  0  0  0  0  0  0  0  0  0
  -26.0282   19.8394  -29.0771 C   0  0  0  0  0  0  0  0  0  0  0  0
  1  2  1  0
  2  3  1  0
  3  4  2  0
  4  5  1  0
  5  6  2  0
  6  7  1  0
  7  8  2  0
  8  9  1  0
  9 10  1  0
 10 11  1  0
 11 12  1  0
 12 13  2  0
 14 12  1  6
 14 15  1  0
 15 16  1  0
 16 17  1  0
 17 18  1  0
 18 19  1  0
 19 20  1  0
 20 21  2  0
 20 22  2  0
 20 23  1  0
 23 24  2  0
 24 25  1  0
 25 26  2  0
 26 27  1  0
 26 28  1  0
 28 29  2  0
 10 30  2  0
  6 31  1  0
 31 32  2  0
 32  3  1  0
 30  7  1  0
 19 14  1  0
 29 23  1  0
M  END
$$$$
