
     RDKit          3D

 24 26  0  0  0  0  0  0  0  0999 V2000
  -18.4817   39.8003  -22.6687 Cl  0  0  0  0  0  0  0  0  0  0  0  0
  -20.6055   38.5417  -22.5384 O   0  0  0  0  0  0  0  0  0  0  0  0
  -19.3051   38.3255  -23.1392 C   0  0  0  0  0  0  0  0  0  0  0  0
  -18.4669   39.3493  -22.4232 C   0  0  0  0  0  0  0  0  0  0  0  0
  -18.9606   40.7762  -22.6291 C   0  0  0  0  0  0  0  0  0  0  0  0
  -18.2463   41.7701  -21.9699 N   0  0  0  0  0  0  0  0  0  0  0  0
  -18.2610   41.8958  -20.5726 C   0  0  0  0  0  0  0  0  0  0  0  0
  -18.2924   43.3627  -20.1190 C   0  0  0  0  0  0  0  0  0  0  0  0
  -17.1299   44.1150  -20.7083 C   0  0  0  0  0  0  0  0  0  0  0  0
  -16.3324   43.1798  -21.5798 C   0  0  0  0  0  0  0  0  0  0  0  0
  -17.2381   42.5089  -22.5998 C   0  0  0  0  0  0  0  0  0  0  0  0
  -18.8914   37.0033  -22.6191 C   0  0  0  0  0  0  0  0  0  0  0  0
  -17.6145   36.4832  -22.7625 C   0  0  0  0  0  0  0  0  0  0  0  0
  -17.2764   35.2403  -22.2834 C   0  0  0  0  0  0  0  0  0  0  0  0
  -18.1988   34.4492  -21.6334 C   0  0  0  0  0  0  0  0  0  0  0  0
  -19.4652   34.9256  -21.4715 C   0  0  0  0  0  0  0  0  0  0  0  0
  -19.7823   36.1524  -21.9495 C   0  0  0  0  0  0  0  0  0  0  0  0
  -19.4748   38.4305  -24.5769 C   0  0  0  0  0  0  0  0  0  0  0  0
  -18.2979   38.2334  -25.4923 C   0  0  0  0  0  0  0  0  0  0  0  0
  -19.0890   37.9015  -26.7888 C   0  0  0  0  0  0  0  0  0  0  0  0
  -20.2224   38.8213  -26.9864 C   0  0  0  0  0  0  0  0  0  0  0  0
  -21.2455   38.4722  -26.2111 C   0  0  0  0  0  0  0  0  0  0  0  0
  -20.5855   37.5986  -25.1681 C   0  0  0  0  0  0  0  0  0  0  0  0
  -19.8441   36.6978  -26.1740 C   0  0  0  0  0  0  0  0  0  0  0  0
  2  3  1  0
  3  4  1  0
  4  5  1  0
  5  6  1  0
  6  7  1  0
  7  8  1  0
  8  9  1  0
  9 10  1  0
 10 11  1  0
  3 12  1  0
 12 13  2  0
 13 14  1  0
 14 15  2  0
 15 16  1  0
 16 17  2  0
  3 18  1  0
 18 19  1  0
 19 20  1  0
 20 21  1  0
 21 22  2  0
 22 23  1  0
 23 24  1  0
 11  6  1  0
 17 12  1  0
 23 18  1  0
 24 20  1  0
M  END
$$$$
