
     RDKit          3D

 13 12  0  0  0  0  0  0  0  0999 V2000
  -17.1310   40.9556  -22.1869 C   0  0  0  0  0  0  0  0  0  0  0  0
  -18.0326   39.9484  -22.6550 N   0  0  0  0  0  0  0  0  0  0  0  0
  -17.7277   38.6311  -22.1187 C   0  0  0  0  0  0  0  0  0  0  0  0
  -18.7270   37.6681  -22.6722 C   0  0  2  0  0  0  0  0  0  0  0  0
  -20.0214   38.0711  -22.2978 O   0  0  0  0  0  0  0  0  0  0  0  0
  -18.5133   36.2755  -22.2597 C   0  0  0  0  0  0  0  0  0  0  0  0
  -17.3733   35.9008  -21.6280 C   0  0  0  0  0  0  0  0  0  0  0  0
  -17.1832   34.5845  -21.2464 C   0  0  0  0  0  0  0  0  0  0  0  0
  -18.1670   33.6674  -21.5181 C   0  0  0  0  0  0  0  0  0  0  0  0
  -19.3181   34.0472  -22.1562 C   0  0  0  0  0  0  0  0  0  0  0  0
  -20.3233   33.1032  -22.4323 O   0  0  0  0  0  0  0  0  0  0  0  0
  -19.5055   35.3512  -22.5339 C   0  0  0  0  0  0  0  0  0  0  0  0
  -18.1065   37.7069  -22.1075 Cl  0  0  0  0  0  0  0  0  0  0  0  0
  1  2  1  0
  2  3  1  0
  3  4  1  0
  4  5  1  1
  4  6  1  0
  6  7  2  0
  7  8  1  0
  8  9  2  0
  9 10  1  0
 10 11  1  0
 10 12  2  0
 12  6  1  0
M  END
$$$$
