
     RDKit          3D

 26 28  0  0  0  0  0  0  0  0999 V2000
  -22.1314   43.8395  -25.6066 C   0  0  0  0  0  0  0  0  0  0  0  0
  -20.8761   43.2515  -25.2086 N   0  0  0  0  0  0  0  0  0  0  0  0
  -20.4717   42.1415  -25.9994 C   0  0  0  0  0  0  0  0  0  0  0  0
  -20.1219   40.9005  -25.2500 C   0  0  0  0  0  0  0  0  0  0  0  0
  -19.2049   41.2763  -24.1418 C   0  0  0  0  0  0  0  0  0  0  0  0
  -19.5548   42.3927  -23.4100 C   0  0  0  0  0  0  0  0  0  0  0  0
  -18.6072   42.6269  -22.4061 C   0  0  0  0  0  0  0  0  0  0  0  0
  -18.4773   43.5793  -21.4250 C   0  0  0  0  0  0  0  0  0  0  0  0
  -17.4046   43.5484  -20.5599 C   0  0  0  0  0  0  0  0  0  0  0  0
  -16.4782   42.5390  -20.7134 C   0  0  0  0  0  0  0  0  0  0  0  0
  -16.6209   41.5995  -21.6933 C   0  0  0  0  0  0  0  0  0  0  0  0
  -17.6912   41.6038  -22.5808 C   0  0  0  0  0  0  0  0  0  0  0  0
  -18.0663   40.8208  -23.6109 N   0  0  0  0  0  0  0  0  0  0  0  0
  -17.3524   39.6516  -24.0878 C   0  0  0  0  0  0  0  0  0  0  0  0
  -17.8087   38.4247  -23.3990 C   0  0  0  0  0  0  0  0  0  0  0  0
  -17.2526   37.9440  -22.2376 C   0  0  0  0  0  0  0  0  0  0  0  0
  -17.7472   36.7733  -21.6524 C   0  0  0  0  0  0  0  0  0  0  0  0
  -18.7885   36.0682  -22.2017 C   0  0  0  0  0  0  0  0  0  0  0  0
  -19.3437   34.8596  -21.6514 C   0  0  0  0  0  0  0  0  0  0  0  0
  -20.3073   34.2446  -22.1978 O   0  0  0  0  0  0  0  0  0  0  0  0
  -18.8396   34.2885  -20.4615 N   0  0  0  0  0  0  0  0  0  0  0  0
  -19.3594   33.1409  -19.9301 O   0  0  0  0  0  0  0  0  0  0  0  0
  -19.3457   36.5572  -23.3729 C   0  0  0  0  0  0  0  0  0  0  0  0
  -18.8489   37.7158  -23.9432 C   0  0  0  0  0  0  0  0  0  0  0  0
  -20.7958   43.0945  -23.8003 C   0  0  0  0  0  0  0  0  0  0  0  0
  -18.9052   39.4527  -22.8498 Cl  0  0  0  0  0  0  0  0  0  0  0  0
  1  2  1  0
  2  3  1  0
  3  4  1  0
  4  5  1  0
  5  6  2  0
  6  7  1  0
  7  8  2  0
  8  9  1  0
  9 10  2  0
 10 11  1  0
 11 12  2  0
 12 13  1  0
 13 14  1  0
 14 15  1  0
 15 16  2  0
 16 17  1  0
 17 18  2  0
 18 19  1  0
 19 20  2  0
 19 21  1  0
 21 22  1  0
 18 23  1  0
 23 24  2  0
  6 25  1  0
 25  2  1  0
 13  5  1  0
 24 15  1  0
 12  7  1  0
M  END
$$$$
