
     RDKit          3D

 40 45  0  0  0  0  0  0  0  0999 V2000
  -22.6925   24.0757  -29.0873 C   0  0  0  0  0  0  0  0  0  0  0  0
  -22.4444   24.4759  -30.3600 O   0  0  0  0  0  0  0  0  0  0  0  0
  -23.5130   24.7601  -31.1733 C   0  0  0  0  0  0  0  0  0  0  0  0
  -23.0901   25.4516  -32.4225 C   0  0  0  0  0  0  0  0  0  0  0  0
  -24.1968   25.9092  -33.1789 N   0  0  0  0  0  0  0  0  0  0  0  0
  -25.0978   24.9183  -33.6490 C   0  0  0  0  0  0  0  0  0  0  0  0
  -24.9330   24.5485  -35.1126 C   0  0  0  0  0  0  0  0  0  0  0  0
  -24.5221   25.6186  -35.9507 N   0  0  0  0  0  0  0  0  0  0  0  0
  -25.0321   25.6070  -37.2925 C   0  0  0  0  0  0  0  0  0  0  0  0
  -24.2695   24.7910  -38.2437 C   0  0  0  0  0  0  0  0  0  0  0  0
  -22.9548   25.0952  -38.5093 C   0  0  0  0  0  0  0  0  0  0  0  0
  -22.2619   24.3077  -39.4160 C   0  0  0  0  0  0  0  0  0  0  0  0
  -22.8119   23.2284  -40.0749 C   0  0  0  0  0  0  0  0  0  0  0  0
  -22.0078   22.4512  -41.0160 C   0  0  0  0  0  0  0  0  0  0  0  0
  -22.1180   22.3937  -42.3505 N   0  0  0  0  0  0  0  0  0  0  0  0
  -21.2058   21.5800  -42.8551 N   0  0  0  0  0  0  0  0  0  0  0  0
  -20.4430   21.0587  -41.8510 C   0  0  0  0  0  0  0  0  0  0  0  0
  -20.9580   21.6146  -40.6992 C   0  0  0  0  0  0  0  0  0  0  0  0
  -20.1641   21.0805  -39.5825 C   0  0  0  0  0  0  0  0  0  0  0  0
  -20.3615   21.3785  -38.3790 O   0  0  0  0  0  0  0  0  0  0  0  0
  -19.1671   20.1889  -40.1602 C   0  0  0  0  0  0  0  0  0  0  0  0
  -18.1892   19.4497  -39.5330 C   0  0  0  0  0  0  0  0  0  0  0  0
  -18.0922   19.5213  -38.1188 N   0  0  0  0  0  0  0  0  0  0  0  0
  -17.4514   18.4918  -37.3565 C   0  0  0  0  0  0  0  0  0  0  0  0
  -17.9386   17.3403  -37.4547 O   0  0  0  0  0  0  0  0  0  0  0  0
  -16.3245   18.7436  -36.5296 N   0  0  0  0  0  0  0  0  0  0  0  0
  -15.6890   17.8208  -35.7503 N   0  0  0  0  0  0  0  0  0  0  0  0
  -15.4237   18.1354  -34.4062 C   0  0  0  0  0  0  0  0  0  0  0  0
  -14.6792   17.0736  -33.6422 C   0  0  0  0  0  0  0  0  0  0  0  0
  -14.8876   15.7998  -34.0887 O   0  0  0  0  0  0  0  0  0  0  0  0
  -16.1489   15.7223  -34.6728 C   0  0  0  0  0  0  0  0  0  0  0  0
  -16.0289   16.4506  -36.0143 C   0  0  0  0  0  0  0  0  0  0  0  0
  -17.3552   18.6743  -40.3026 C   0  0  0  0  0  0  0  0  0  0  0  0
  -17.5190   18.6557  -41.6874 C   0  0  0  0  0  0  0  0  0  0  0  0
  -18.5122   19.4079  -42.3100 C   0  0  0  0  0  0  0  0  0  0  0  0
  -19.3321   20.1723  -41.5356 C   0  0  0  0  0  0  0  0  0  0  0  0
  -24.1278   22.9395  -39.7963 C   0  0  0  0  0  0  0  0  0  0  0  0
  -24.8554   23.7009  -38.8973 C   0  0  0  0  0  0  0  0  0  0  0  0
  -24.8176   26.8771  -35.3021 C   0  0  0  0  0  0  0  0  0  0  0  0
  -23.8789   26.9591  -34.1083 C   0  0  0  0  0  0  0  0  0  0  0  0
  1  2  1  0
  2  3  1  0
  3  4  1  0
  4  5  1  0
  5  6  1  0
  6  7  1  0
  7  8  1  0
  8  9  1  0
  9 10  1  0
 10 11  2  0
 11 12  1  0
 12 13  2  0
 13 14  1  0
 14 15  2  0
 15 16  1  0
 16 17  1  0
 17 18  2  0
 18 19  1  0
 19 20  2  0
 19 21  1  0
 21 22  2  0
 22 23  1  0
 23 24  1  0
 24 25  2  0
 24 26  1  0
 26 27  1  0
 27 28  1  0
 28 29  1  0
 29 30  1  0
 30 31  1  0
 31 32  1  0
 22 33  1  0
 33 34  2  0
 34 35  1  0
 35 36  2  0
 13 37  1  0
 37 38  2  0
  8 39  1  0
 39 40  1  0
 40  5  1  0
 38 10  1  0
 18 14  1  0
 36 21  1  0
 36 17  1  0
 32 27  1  0
M  END
$$$$
