
     RDKit          3D

 16 18  0  0  0  0  0  0  0  0999 V2000
  -16.4276   37.8936  -20.7269 O   0  0  0  0  0  0  0  0  0  0  0  0
  -17.5856   37.5414  -21.0900 C   0  0  0  0  0  0  0  0  0  0  0  0
  -18.5480   38.5645  -21.1784 N   0  0  0  0  0  0  0  0  0  0  0  0
  -19.7451   38.7225  -21.9370 C   0  0  0  0  0  0  0  0  0  0  0  0
  -19.8843   37.7941  -23.1121 C   0  0  0  0  0  0  0  0  0  0  0  0
  -20.2485   36.1140  -22.5403 S   0  0  0  0  0  0  0  0  0  0  0  0
  -18.6878   35.3542  -21.9226 C   0  0  0  0  0  0  0  0  0  0  0  0
  -17.7059   36.1342  -21.3498 C   0  0  0  0  0  0  0  0  0  0  0  0
  -16.4665   34.9941  -20.9400 S   0  0  0  0  0  0  0  0  0  0  0  0
  -17.3010   33.5136  -21.5474 C   0  0  0  0  0  0  0  0  0  0  0  0
  -16.9249   32.1800  -21.5686 C   0  0  0  0  0  0  0  0  0  0  0  0
  -17.8079   31.2469  -22.1179 C   0  0  0  0  0  0  0  0  0  0  0  0
  -18.9919   31.7353  -22.5979 C   0  0  0  0  0  0  0  0  0  0  0  0
  -19.8800   30.8012  -23.1496 O   0  0  0  0  0  0  0  0  0  0  0  0
  -19.3370   33.0469  -22.5654 C   0  0  0  0  0  0  0  0  0  0  0  0
  -18.4737   34.0301  -22.0180 C   0  0  0  0  0  0  0  0  0  0  0  0
  1  2  2  0
  2  3  1  0
  3  4  1  0
  4  5  1  0
  5  6  1  0
  6  7  1  0
  7  8  2  0
  8  9  1  0
  9 10  1  0
 10 11  2  0
 11 12  1  0
 12 13  2  0
 13 14  1  0
 13 15  1  0
 15 16  2  0
  8  2  1  0
 16 10  1  0
 16  7  1  0
M  END
$$$$
