
     RDKit          3D

 29 32  0  0  0  0  0  0  0  0999 V2000
  -24.8859   15.8402  -32.4080 C   0  0  0  0  0  0  0  0  0  0  0  0
  -24.2202   14.9489  -33.2586 O   0  0  0  0  0  0  0  0  0  0  0  0
  -22.9236   15.1515  -33.6719 C   0  0  0  0  0  0  0  0  0  0  0  0
  -22.4879   14.5870  -34.8672 C   0  0  0  0  0  0  0  0  0  0  0  0
  -21.1892   14.7951  -35.2736 C   0  0  0  0  0  0  0  0  0  0  0  0
  -20.3120   15.5596  -34.5063 C   0  0  0  0  0  0  0  0  0  0  0  0
  -18.9734   15.7781  -34.9252 N   0  0  0  0  0  0  0  0  0  0  0  0
  -18.7372   16.8254  -35.6810 C   0  0  0  0  0  0  0  0  0  0  0  0
  -19.7472   17.4674  -36.2501 O   0  0  0  0  0  0  0  0  0  0  0  0
  -19.5511   18.5172  -37.0106 C   0  0  0  0  0  0  0  0  0  0  0  0
  -20.6217   19.1916  -37.6076 C   0  0  0  0  0  0  0  0  0  0  0  0
  -20.4315   20.2972  -38.4085 C   0  0  0  0  0  0  0  0  0  0  0  0
  -21.5489   20.9052  -38.9605 O   0  0  0  0  0  0  0  0  0  0  0  0
  -19.1310   20.7683  -38.6388 C   0  0  0  0  0  0  0  0  0  0  0  0
  -18.0828   20.1167  -38.0602 C   0  0  0  0  0  0  0  0  0  0  0  0
  -18.2768   19.0129  -37.2609 C   0  0  0  0  0  0  0  0  0  0  0  0
  -17.2241   18.3370  -36.6632 C   0  0  0  0  0  0  0  0  0  0  0  0
  -17.4337   17.2322  -35.8631 C   0  0  0  0  0  0  0  0  0  0  0  0
  -16.3520   16.4942  -35.2232 C   0  0  0  0  0  0  0  0  0  0  0  0
  -15.3564   16.0467  -35.8559 O   0  0  0  0  0  0  0  0  0  0  0  0
  -16.4604   16.2885  -33.8179 N   0  0  0  0  0  0  0  0  0  0  0  0
  -15.3574   15.8721  -33.0199 C   0  0  0  0  0  0  0  0  0  0  0  0
  -14.0446   15.8746  -33.4631 C   0  0  0  0  0  0  0  0  0  0  0  0
  -13.0084   15.4612  -32.6629 C   0  0  0  0  0  0  0  0  0  0  0  0
  -13.2736   15.0316  -31.3872 C   0  0  0  0  0  0  0  0  0  0  0  0
  -14.5968   15.0355  -30.9585 C   0  0  0  0  0  0  0  0  0  0  0  0
  -15.5940   15.4494  -31.7721 N   0  0  0  0  0  0  0  0  0  0  0  0
  -20.7241   16.1260  -33.3209 C   0  0  0  0  0  0  0  0  0  0  0  0
  -22.0329   15.9022  -32.9348 C   0  0  0  0  0  0  0  0  0  0  0  0
  1  2  1  0
  2  3  1  0
  3  4  2  0
  4  5  1  0
  5  6  2  0
  6  7  1  0
  7  8  2  0
  8  9  1  0
  9 10  1  0
 10 11  2  0
 11 12  1  0
 12 13  1  0
 12 14  2  0
 14 15  1  0
 15 16  2  0
 16 17  1  0
 17 18  2  0
 18 19  1  0
 19 20  2  0
 19 21  1  0
 21 22  1  0
 22 23  2  0
 23 24  1  0
 24 25  2  0
 25 26  1  0
 26 27  2  0
  6 28  1  0
 28 29  2  0
 29  3  1  0
 18  8  1  0
 27 22  1  0
 16 10  1  0
M  END
$$$$
