
     RDKit          3D

 37 41  0  0  0  0  0  0  0  0999 V2000
  -24.3059   26.2526  -31.8885 C   0  0  0  0  0  0  0  0  0  0  0  0
  -24.5062   24.7869  -31.9605 C   0  0  0  0  0  0  0  0  0  0  0  0
  -23.6303   24.0464  -32.4920 O   0  0  0  0  0  0  0  0  0  0  0  0
  -25.6821   24.1780  -31.4367 N   0  0  0  0  0  0  0  0  0  0  0  0
  -25.7748   22.7487  -31.3817 C   0  0  0  0  0  0  0  0  0  0  0  0
  -25.2602   22.0075  -32.4264 C   0  0  0  0  0  0  0  0  0  0  0  0
  -25.3448   20.6277  -32.3847 C   0  0  0  0  0  0  0  0  0  0  0  0
  -25.9333   20.0011  -31.3178 C   0  0  0  0  0  0  0  0  0  0  0  0
  -26.4436   20.7125  -30.2839 C   0  0  0  0  0  0  0  0  0  0  0  0
  -27.1405   20.0801  -29.2386 N   0  0  0  0  0  0  0  0  0  0  0  0
  -28.5118   20.0460  -29.3064 C   0  0  0  0  0  0  0  0  0  0  0  0
  -29.0212   20.5979  -30.3122 O   0  0  0  0  0  0  0  0  0  0  0  0
  -29.3035   19.4841  -28.4034 N   0  0  0  0  0  0  0  0  0  0  0  0
  -30.7670   19.4827  -28.5356 C   0  0  0  0  0  0  0  0  0  0  0  0
  -31.5843   20.2097  -27.5406 C   0  0  0  0  0  0  0  0  0  0  0  0
  -31.4231   20.7673  -28.9281 C   0  0  0  0  0  0  0  0  0  0  0  0
  -28.7681   18.9041  -27.3464 C   0  0  0  0  0  0  0  0  0  0  0  0
  -29.4356   18.3444  -26.4352 O   0  0  0  0  0  0  0  0  0  0  0  0
  -27.3974   18.8952  -27.2041 C   0  0  0  0  0  0  0  0  0  0  0  0
  -26.8651   18.2759  -26.0836 C   0  0  0  0  0  0  0  0  0  0  0  0
  -27.7141   17.6708  -25.1212 N   0  0  0  0  0  0  0  0  0  0  0  0
  -28.1232   16.3341  -25.2312 C   0  0  0  0  0  0  0  0  0  0  0  0
  -27.8440   15.6440  -26.3781 C   0  0  0  0  0  0  0  0  0  0  0  0
  -28.2406   14.3353  -26.4970 C   0  0  0  0  0  0  0  0  0  0  0  0
  -28.9171   13.6937  -25.4852 C   0  0  0  0  0  0  0  0  0  0  0  0
  -29.4846   11.6910  -25.7557 I   0  0  0  0  0  0  0  0  0  0  0  0
  -29.1928   14.3950  -24.3372 C   0  0  0  0  0  0  0  0  0  0  0  0
  -28.7962   15.7097  -24.2136 C   0  0  0  0  0  0  0  0  0  0  0  0
  -29.0973   16.3691  -23.0407 F   0  0  0  0  0  0  0  0  0  0  0  0
  -25.5211   18.2524  -25.9218 N   0  0  0  0  0  0  0  0  0  0  0  0
  -25.0143   17.5992  -24.7449 C   0  0  0  0  0  0  0  0  0  0  0  0
  -24.7426   18.8231  -26.8399 C   0  0  0  0  0  0  0  0  0  0  0  0
  -23.4986   18.7909  -26.6729 O   0  0  0  0  0  0  0  0  0  0  0  0
  -25.2140   19.4650  -27.9939 C   0  0  0  0  0  0  0  0  0  0  0  0
  -24.2842   20.0651  -28.9461 C   0  0  0  0  0  0  0  0  0  0  0  0
  -26.5700   19.5059  -28.1878 C   0  0  0  0  0  0  0  0  0  0  0  0
  -26.3581   22.0871  -30.3277 C   0  0  0  0  0  0  0  0  0  0  0  0
  1  2  1  0
  2  3  2  0
  2  4  1  0
  4  5  1  0
  5  6  2  0
  6  7  1  0
  7  8  2  0
  8  9  1  0
  9 10  1  0
 10 11  1  0
 11 12  2  0
 11 13  1  0
 13 14  1  0
 14 15  1  0
 15 16  1  0
 13 17  1  0
 17 18  2  0
 17 19  1  0
 19 20  2  0
 20 21  1  0
 21 22  1  0
 22 23  2  0
 23 24  1  0
 24 25  2  0
 25 26  1  0
 25 27  1  0
 27 28  2  0
 28 29  1  0
 20 30  1  0
 30 31  1  0
 30 32  1  0
 32 33  2  0
 32 34  1  0
 34 35  1  0
 34 36  2  0
  9 37  2  0
 37  5  1  0
 36 10  1  0
 16 14  1  0
 36 19  1  0
 28 22  1  0
M  END
$$$$
