
     RDKit          3D

 22 24  0  0  0  0  0  0  0  0999 V2000
  -20.6812   33.8866  -21.9251 C   0  0  0  0  0  0  0  0  0  0  0  0
  -19.4619   34.5450  -21.6626 O   0  0  0  0  0  0  0  0  0  0  0  0
  -19.1640   35.8236  -22.1186 C   0  0  0  0  0  0  0  0  0  0  0  0
  -19.0101   36.0707  -23.4666 C   0  0  0  0  0  0  0  0  0  0  0  0
  -19.1529   35.0320  -24.3960 O   0  0  0  0  0  0  0  0  0  0  0  0
  -18.7150   37.3561  -23.8675 C   0  0  0  0  0  0  0  0  0  0  0  0
  -18.5691   38.4026  -22.9580 C   0  0  0  0  0  0  0  0  0  0  0  0
  -18.2914   39.6139  -23.3292 O   0  0  0  0  0  0  0  0  0  0  0  0
  -18.1470   40.6322  -22.4760 C   0  0  0  0  0  0  0  0  0  0  0  0
  -17.8328   41.9632  -23.0043 C   0  0  0  0  0  0  0  0  0  0  0  0
  -17.8638   42.2089  -24.3706 C   0  0  0  0  0  0  0  0  0  0  0  0
  -17.5765   43.4411  -24.9125 C   0  0  0  0  0  0  0  0  0  0  0  0
  -17.2439   44.4764  -24.0668 C   0  0  0  0  0  0  0  0  0  0  0  0
  -16.9503   45.7320  -24.6051 O   0  0  0  0  0  0  0  0  0  0  0  0
  -17.2015   44.2801  -22.7227 C   0  0  0  0  0  0  0  0  0  0  0  0
  -17.4978   43.0211  -22.2095 C   0  0  0  0  0  0  0  0  0  0  0  0
  -18.2877   40.4478  -21.1309 C   0  0  0  0  0  0  0  0  0  0  0  0
  -18.5877   39.1544  -20.6884 C   0  0  0  0  0  0  0  0  0  0  0  0
  -18.7146   38.9941  -19.4590 O   0  0  0  0  0  0  0  0  0  0  0  0
  -18.7248   38.1456  -21.6123 C   0  0  0  0  0  0  0  0  0  0  0  0
  -19.0203   36.8637  -21.1971 C   0  0  0  0  0  0  0  0  0  0  0  0
  -19.1700   36.6414  -19.8361 O   0  0  0  0  0  0  0  0  0  0  0  0
  1  2  1  0
  2  3  1  0
  3  4  2  0
  4  5  1  0
  4  6  1  0
  6  7  2  0
  7  8  1  0
  8  9  1  0
  9 10  1  0
 10 11  2  0
 11 12  1  0
 12 13  2  0
 13 14  1  0
 13 15  1  0
 15 16  2  0
  9 17  2  0
 17 18  1  0
 18 19  2  0
 18 20  1  0
 20 21  2  0
 21 22  1  0
 21  3  1  0
 20  7  1  0
 16 10  1  0
M  END
$$$$
