
     RDKit          3D

 27 30  0  0  0  0  0  0  0  0999 V2000
  -18.4542   42.7465  -25.2560 C   0  0  0  0  0  0  0  0  0  0  0  0
  -18.3149   41.3605  -24.6763 C   0  0  0  0  0  0  0  0  0  0  0  0
  -18.6924   41.4516  -23.2027 C   0  0  0  0  0  0  0  0  0  0  0  0
  -18.5400   40.0982  -22.5391 C   0  0  0  0  0  0  0  0  0  0  0  0
  -17.0369   39.9552  -22.2738 C   0  0  0  0  0  0  0  0  0  0  0  0
  -19.3413   40.1058  -21.2695 C   0  0  0  0  0  0  0  0  0  0  0  0
  -18.9795   39.0066  -23.3880 N   0  0  0  0  0  0  0  0  0  0  0  0
  -18.8067   37.6671  -23.0380 C   0  0  0  0  0  0  0  0  0  0  0  0
  -18.6284   36.7743  -23.9172 O   0  0  0  0  0  0  0  0  0  0  0  0
  -18.8225   37.1814  -21.6343 C   0  0  0  0  0  0  0  0  0  0  0  0
  -18.6065   35.7389  -21.5760 N   0  0  0  0  0  0  0  0  0  0  0  0
  -17.3942   35.0119  -21.4444 C   0  0  0  0  0  0  0  0  0  0  0  0
  -16.2533   35.5001  -21.3547 O   0  0  0  0  0  0  0  0  0  0  0  0
  -17.6947   33.5674  -21.4296 C   0  0  0  0  0  0  0  0  0  0  0  0
  -16.9242   32.4273  -21.3262 C   0  0  0  0  0  0  0  0  0  0  0  0
  -17.4874   31.1642  -21.3407 C   0  0  0  0  0  0  0  0  0  0  0  0
  -18.8614   31.0366  -21.4622 C   0  0  0  0  0  0  0  0  0  0  0  0
  -19.6284   32.1798  -21.5653 C   0  0  0  0  0  0  0  0  0  0  0  0
  -19.0585   33.4456  -21.5503 C   0  0  0  0  0  0  0  0  0  0  0  0
  -19.6434   34.7784  -21.6425 C   0  0  0  0  0  0  0  0  0  0  0  0
  -20.8934   35.0165  -21.7633 O   0  0  0  0  0  0  0  0  0  0  0  0
  -19.5994   39.2997  -24.6620 C   0  0  0  0  0  0  0  0  0  0  0  0
  -20.5252   38.4345  -25.2218 C   0  0  0  0  0  0  0  0  0  0  0  0
  -21.0967   38.7229  -26.4596 C   0  0  0  0  0  0  0  0  0  0  0  0
  -20.7475   39.8610  -27.1268 C   0  0  0  0  0  0  0  0  0  0  0  0
  -19.8249   40.7307  -26.5724 C   0  0  0  0  0  0  0  0  0  0  0  0
  -19.2687   40.4480  -25.3647 C   0  0  0  0  0  0  0  0  0  0  0  0
  1  2  1  0
  2  3  1  0
  3  4  1  0
  4  5  1  0
  4  6  1  0
  4  7  1  0
  7  8  1  0
  8  9  2  0
  8 10  1  0
 10 11  1  0
 11 12  1  0
 12 13  2  0
 12 14  1  0
 14 15  2  0
 15 16  1  0
 16 17  2  0
 17 18  1  0
 18 19  2  0
 19 20  1  0
 20 21  2  0
  7 22  1  0
 22 23  2  0
 23 24  1  0
 24 25  2  0
 25 26  1  0
 26 27  2  0
 27  2  1  0
 20 11  1  0
 27 22  1  0
 19 14  1  0
M  END
$$$$
