
     RDKit          3D

 32 36  0  0  0  0  0  0  0  0999 V2000
  -24.4959   23.3900  -32.3500 C   0  0  0  0  0  0  0  0  0  0  0  0
  -25.1219   22.1424  -32.2921 O   0  0  0  0  0  0  0  0  0  0  0  0
  -26.0640   21.8182  -31.3109 C   0  0  0  0  0  0  0  0  0  0  0  0
  -27.2092   22.5679  -31.1477 C   0  0  0  0  0  0  0  0  0  0  0  0
  -28.1536   22.2496  -30.1702 C   0  0  0  0  0  0  0  0  0  0  0  0
  -27.9737   21.1710  -29.3310 C   0  0  0  0  0  0  0  0  0  0  0  0
  -28.9730   20.8135  -28.2780 C   0  0  0  0  0  0  0  0  0  0  0  0
  -28.5022   21.1938  -26.9376 C   0  0  0  0  0  0  0  0  0  0  0  0
  -28.0387   22.5438  -26.7699 C   0  0  0  0  0  0  0  0  0  0  0  0
  -27.6810   23.6437  -26.6291 N   0  0  0  0  0  0  0  0  0  0  0  0
  -28.5043   20.3428  -25.9412 C   0  0  0  0  0  0  0  0  0  0  0  0
  -28.0210   20.8212  -24.6689 N   0  0  0  0  0  0  0  0  0  0  0  0
  -28.9466   19.0586  -26.1064 O   0  0  0  0  0  0  0  0  0  0  0  0
  -29.4100   18.6110  -27.3401 C   0  0  0  0  0  0  0  0  0  0  0  0
  -29.4367   19.4100  -28.3853 C   0  0  0  0  0  0  0  0  0  0  0  0
  -29.9390   18.8695  -29.6440 C   0  0  0  0  0  0  0  0  0  0  0  0
  -30.6182   19.5975  -30.3941 O   0  0  0  0  0  0  0  0  0  0  0  0
  -29.6183   17.4677  -29.9819 C   0  0  0  0  0  0  0  0  0  0  0  0
  -29.5988   16.5583  -28.8063 C   0  0  0  0  0  0  0  0  0  0  0  0
  -28.2737   15.8607  -28.7134 C   0  0  0  0  0  0  0  0  0  0  0  0
  -27.1019   16.4531  -29.1272 C   0  0  0  0  0  0  0  0  0  0  0  0
  -25.8624   15.8262  -29.0328 C   0  0  0  0  0  0  0  0  0  0  0  0
  -25.7827   14.5743  -28.5124 C   0  0  0  0  0  0  0  0  0  0  0  0
  -26.9380   13.9260  -28.0776 C   0  0  0  0  0  0  0  0  0  0  0  0
  -26.8609   12.6586  -27.5559 C   0  0  0  0  0  0  0  0  0  0  0  0
  -27.9673   11.9678  -27.1161 C   0  0  0  0  0  0  0  0  0  0  0  0
  -29.1819   12.6031  -27.2185 C   0  0  0  0  0  0  0  0  0  0  0  0
  -29.2532   13.8882  -27.7483 C   0  0  0  0  0  0  0  0  0  0  0  0
  -28.1553   14.5706  -28.1828 C   0  0  0  0  0  0  0  0  0  0  0  0
  -29.8878   17.2089  -27.4911 C   0  0  0  0  0  0  0  0  0  0  0  0
  -26.8295   20.4195  -29.4919 C   0  0  0  0  0  0  0  0  0  0  0  0
  -25.8941   20.7429  -30.4674 C   0  0  0  0  0  0  0  0  0  0  0  0
  1  2  1  0
  2  3  1  0
  3  4  2  0
  4  5  1  0
  5  6  2  0
  6  7  1  0
  7  8  1  0
  8  9  1  0
  9 10  3  0
  8 11  2  0
 11 12  1  0
 11 13  1  0
 13 14  1  0
 14 15  2  0
 15 16  1  0
 16 17  2  0
 16 18  1  0
 18 19  1  0
 19 20  1  0
 20 21  2  0
 21 22  1  0
 22 23  2  0
 23 24  1  0
 24 25  2  0
 25 26  1  0
 26 27  2  0
 27 28  1  0
 28 29  2  0
 19 30  1  0
  6 31  1  0
 31 32  2  0
 32  3  1  0
 15  7  1  0
 29 20  1  0
 30 14  1  0
 29 24  1  0
M  END
$$$$
