
     RDKit          3D

 19 20  0  0  0  0  0  0  0  0999 V2000
  -10.0770   23.6315   -8.9875 C   0  0  0  0  0  0  0  0  0  0  0  0
  -11.2048   23.3738   -9.9232 C   0  0  0  0  0  0  0  0  0  0  0  0
  -11.0281   22.8906  -11.2023 C   0  0  0  0  0  0  0  0  0  0  0  0
  -12.0494   22.6440  -12.0849 C   0  0  0  0  0  0  0  0  0  0  0  0
  -11.7832   22.1075  -13.4558 C   0  0  0  0  0  0  0  0  0  0  0  0
  -13.3537   22.9065  -11.6409 C   0  0  0  0  0  0  0  0  0  0  0  0
  -14.6599   22.6168  -12.7514 S   0  0  0  0  0  6  0  0  0  0  0  0
  -14.1725   22.2938  -14.1355 O   0  0  0  0  0  0  0  0  0  0  0  0
  -15.4731   23.8947  -12.9223 O   0  0  0  0  0  0  0  0  0  0  0  0
  -15.7602   21.4133  -12.2354 N   0  0  0  0  0  0  0  0  0  0  0  0
  -17.0837   21.5056  -12.0189 C   0  0  0  0  0  0  0  0  0  0  0  0
  -17.6080   20.3015  -11.5791 C   0  0  0  0  0  0  0  0  0  0  0  0
  -19.0450   20.0251  -11.2364 C   0  0  0  0  0  0  0  0  0  0  0  0
  -16.5585   19.4263  -11.5222 C   0  0  0  0  0  0  0  0  0  0  0  0
  -15.4328   20.1236  -11.9283 C   0  0  0  0  0  0  0  0  0  0  0  0
  -14.0526   19.5767  -12.0502 C   0  0  0  0  0  0  0  0  0  0  0  0
  -13.6004   23.3883  -10.3811 C   0  0  0  0  0  0  0  0  0  0  0  0
  -14.9841   23.6866   -9.8997 C   0  0  0  0  0  0  0  0  0  0  0  0
  -12.5090   23.6114   -9.5467 C   0  0  0  0  0  0  0  0  0  0  0  0
  1  2  1  0
  2  3  2  0
  3  4  1  0
  4  5  1  0
  4  6  2  0
  6  7  1  0
  7  8  2  0
  7  9  2  0
  7 10  1  0
 10 11  1  0
 11 12  2  0
 12 13  1  0
 12 14  1  0
 14 15  2  0
 15 16  1  0
  6 17  1  0
 17 18  1  0
 17 19  2  0
 19  2  1  0
 15 10  1  0
M  END
$$$$
