
     RDKit          3D

 25 25  0  0  0  0  0  0  0  0999 V2000
  -26.3511   19.7588  -23.3370 C   0  0  0  0  0  0  0  0  0  0  0  0
  -25.5494   19.9512  -24.6496 C   0  0  0  0  0  0  0  0  0  0  0  0
  -24.1080   20.2264  -24.2250 C   0  0  0  0  0  0  0  0  0  0  0  0
  -25.6486   18.7240  -25.4796 C   0  0  0  0  0  0  0  0  0  0  0  0
  -26.3877   18.7155  -26.7460 C   0  0  2  0  0  0  0  0  0  0  0  0
  -25.6991   19.6539  -27.6946 N   0  0  0  0  0  0  0  0  0  0  0  0
  -25.3912   19.2550  -29.0109 C   0  0  0  0  0  0  0  0  0  0  0  0
  -25.9173   18.2151  -29.4761 O   0  0  0  0  0  0  0  0  0  0  0  0
  -24.4443   20.0571  -29.8601 C   0  0  1  0  0  0  0  0  0  0  0  0
  -23.4379   19.3468  -30.5411 O   0  0  0  0  0  0  0  0  0  0  0  0
  -24.4280   19.9149  -31.3077 C   0  0  2  0  0  0  0  0  0  0  0  0
  -24.1078   21.1454  -32.1015 C   0  0  0  0  0  0  0  0  0  0  0  0
  -23.5135   22.0684  -31.4831 O   0  0  0  0  0  0  0  0  0  0  0  0
  -24.4339   21.2797  -33.4262 O   0  0  0  0  0  0  0  0  0  0  0  0
  -27.7904   19.0027  -26.8732 C   0  0  0  0  0  0  0  0  0  0  0  0
  -28.5754   18.1303  -27.4089 O   0  0  0  0  0  0  0  0  0  0  0  0
  -28.4978   20.1890  -26.4503 N   0  0  0  0  0  0  0  0  0  0  0  0
  -29.9049   20.3451  -26.5599 C   0  0  0  0  0  0  0  0  0  0  0  0
  -30.5670   20.1857  -27.8631 C   0  0  0  0  0  0  0  0  0  0  0  0
  -31.8552   19.4555  -27.9169 C   0  0  0  0  0  0  0  0  0  0  0  0
  -32.4668   19.4170  -29.3014 C   0  0  0  0  0  0  0  0  0  0  0  0
  -33.7193   18.6931  -29.2301 N   0  0  0  0  0  0  0  0  0  0  0  0
  -34.5421   18.5192  -30.3841 C   0  0  0  0  0  0  0  0  0  0  0  0
  -35.5475   17.6839  -30.3066 N   0  0  0  0  0  0  0  0  0  0  0  0
  -34.2623   19.2381  -31.5671 N   0  0  0  0  0  0  0  0  0  0  0  0
  1  2  1  0
  2  3  1  0
  2  4  1  0
  5  4  1  1
  5  6  1  0
  6  7  1  0
  7  8  2  0
  9  7  1  1
  9 10  1  0
 10 11  1  0
 11 12  1  6
 12 13  2  0
 12 14  1  0
  5 15  1  0
 15 16  2  0
 15 17  1  0
 17 18  1  0
 18 19  1  0
 19 20  1  0
 20 21  1  0
 21 22  1  0
 22 23  1  0
 23 24  2  0
 23 25  1  0
 11  9  1  0
M  END
$$$$
