
     RDKit          3D

 27 28  0  0  0  0  0  0  0  0999 V2000
  -21.2659    0.5578  -37.0723 C   0  0  0  0  0  0  0  0  0  0  0  0
  -20.5442    0.6506  -35.8680 O   0  0  0  0  0  0  0  0  0  0  0  0
  -19.2312    0.2091  -35.8132 C   0  0  0  0  0  0  0  0  0  0  0  0
  -18.4426    0.1877  -36.9389 C   0  0  0  0  0  0  0  0  0  0  0  0
  -17.1465   -0.2581  -36.8440 C   0  0  0  0  0  0  0  0  0  0  0  0
  -16.6375   -0.6802  -35.6389 C   0  0  0  0  0  0  0  0  0  0  0  0
  -17.3981   -0.6743  -34.4828 C   0  0  0  0  0  0  0  0  0  0  0  0
  -16.8968   -1.1141  -33.1925 C   0  0  0  0  0  0  0  0  0  0  0  0
  -16.8014   -0.2264  -32.2973 O   0  0  0  0  0  0  0  0  0  0  0  0
  -16.5175   -2.4579  -32.8933 N   0  0  0  0  0  0  0  0  0  0  0  0
  -15.9670   -2.6513  -31.5885 N   0  0  0  0  0  0  0  0  0  0  0  0
  -14.5749   -2.4781  -31.4945 C   0  0  0  0  0  0  0  0  0  0  0  0
  -13.8726   -3.3199  -30.8167 O   0  0  0  0  0  0  0  0  0  0  0  0
  -13.7913   -1.4191  -32.1020 C   0  0  0  0  0  0  0  0  0  0  0  0
  -13.8114   -0.1035  -31.7212 C   0  0  0  0  0  0  0  0  0  0  0  0
  -13.0251    0.8501  -32.3428 C   0  0  0  0  0  0  0  0  0  0  0  0
  -13.0126    2.2786  -31.9599 C   0  0  0  0  0  0  0  0  0  0  0  0
  -12.1911    0.4497  -33.3876 C   0  0  0  0  0  0  0  0  0  0  0  0
  -12.1488   -0.8617  -33.7912 C   0  0  0  0  0  0  0  0  0  0  0  0
  -11.2635   -1.2667  -34.8996 C   0  0  0  0  0  0  0  0  0  0  0  0
  -12.9475   -1.7724  -33.1428 C   0  0  0  0  0  0  0  0  0  0  0  0
  -16.8649   -2.9995  -30.5502 C   0  0  0  0  0  0  0  0  0  0  0  0
  -17.2785   -1.9233  -29.6146 C   0  0  0  0  0  0  0  0  0  0  0  0
  -18.1594   -3.6044  -31.1248 C   0  0  0  0  0  0  0  0  0  0  0  0
  -16.2534   -4.1756  -29.7641 C   0  0  0  0  0  0  0  0  0  0  0  0
  -18.7019   -0.2216  -34.5971 C   0  0  0  0  0  0  0  0  0  0  0  0
  -19.5853   -0.1843  -33.4205 C   0  0  0  0  0  0  0  0  0  0  0  0
  1  2  1  0
  2  3  1  0
  3  4  2  0
  4  5  1  0
  5  6  2  0
  6  7  1  0
  7  8  1  0
  8  9  2  0
  8 10  1  0
 10 11  1  0
 11 12  1  0
 12 13  2  0
 12 14  1  0
 14 15  2  0
 15 16  1  0
 16 17  1  0
 16 18  2  0
 18 19  1  0
 19 20  1  0
 19 21  2  0
 11 22  1  0
 22 23  1  0
 22 24  1  0
 22 25  1  0
  7 26  2  0
 26 27  1  0
 26  3  1  0
 21 14  1  0
M  END
$$$$
