
     RDKit          3D

 33 37  0  0  0  0  0  0  0  0999 V2000
  -13.5304   17.3144  -34.7905 C   0  0  0  0  0  0  0  0  0  0  0  0
  -13.0360   16.6473  -35.9977 N   0  0  0  0  0  0  0  0  0  0  0  0
  -13.5370   16.9543  -37.2620 C   0  0  0  0  0  0  0  0  0  0  0  0
  -14.7653   17.2722  -37.3483 O   0  0  0  0  0  0  0  0  0  0  0  0
  -12.7973   16.9523  -38.5201 C   0  0  0  0  0  0  0  0  0  0  0  0
  -11.5107   16.4350  -38.6083 C   0  0  0  0  0  0  0  0  0  0  0  0
  -10.8081   16.4573  -39.7979 C   0  0  0  0  0  0  0  0  0  0  0  0
  -11.3568   16.9914  -40.9315 C   0  0  0  0  0  0  0  0  0  0  0  0
  -12.6298   17.5114  -40.8755 C   0  0  0  0  0  0  0  0  0  0  0  0
  -13.2218   18.0472  -41.9920 C   0  0  0  0  0  0  0  0  0  0  0  0
  -14.5329   18.5867  -42.0041 C   0  0  0  0  0  0  0  0  0  0  0  0
  -14.9582   19.0677  -43.1879 O   0  0  0  0  0  0  0  0  0  0  0  0
  -14.9966   20.2634  -43.8231 C   0  0  0  0  0  0  0  0  0  0  0  0
  -13.8382   21.0669  -43.7088 C   0  0  0  0  0  0  0  0  0  0  0  0
  -13.7914   22.2785  -44.3121 C   0  0  0  0  0  0  0  0  0  0  0  0
  -14.8046   22.7773  -45.0330 N   0  0  0  0  0  0  0  0  0  0  0  0
  -15.9403   22.0561  -45.1811 C   0  0  0  0  0  0  0  0  0  0  0  0
  -16.9885   22.5357  -45.9213 C   0  0  0  0  0  0  0  0  0  0  0  0
  -18.1685   21.8416  -46.1173 C   0  0  0  0  0  0  0  0  0  0  0  0
  -19.2086   22.2360  -46.8076 O   0  0  0  0  0  0  0  0  0  0  0  0
  -20.3800   22.7538  -47.0319 C   0  0  0  0  0  0  0  0  0  0  0  0
  -21.1378   23.2688  -45.8144 C   0  0  0  0  0  0  0  0  0  0  0  0
  -21.5914   22.3502  -44.8176 N   0  0  0  0  0  0  0  0  0  0  0  0
  -20.7946   24.7097  -45.3626 C   0  0  0  0  0  0  0  0  0  0  0  0
  -22.0543   24.4281  -46.0441 C   0  0  0  0  0  0  0  0  0  0  0  0
  -18.2300   20.5743  -45.4926 C   0  0  0  0  0  0  0  0  0  0  0  0
  -19.3992   19.8395  -45.6650 O   0  0  0  0  0  0  0  0  0  0  0  0
  -19.2636   18.4933  -46.0899 C   0  0  0  0  0  0  0  0  0  0  0  0
  -17.1766   20.1147  -44.7604 C   0  0  0  0  0  0  0  0  0  0  0  0
  -16.0024   20.8162  -44.5692 C   0  0  0  0  0  0  0  0  0  0  0  0
  -15.1821   18.5370  -40.8042 C   0  0  0  0  0  0  0  0  0  0  0  0
  -14.6083   18.0068  -39.6726 C   0  0  0  0  0  0  0  0  0  0  0  0
  -13.3419   17.4877  -39.6689 C   0  0  0  0  0  0  0  0  0  0  0  0
  1  2  1  0
  2  3  1  0
  3  4  2  0
  3  5  1  0
  5  6  2  0
  6  7  1  0
  7  8  2  0
  8  9  1  0
  9 10  2  0
 10 11  1  0
 11 12  1  0
 12 13  1  0
 13 14  2  0
 14 15  1  0
 15 16  2  0
 16 17  1  0
 17 18  2  0
 18 19  1  0
 19 20  1  0
 20 21  1  0
 21 22  1  0
 22 23  1  0
 22 24  1  0
 24 25  1  0
 19 26  2  0
 26 27  1  0
 27 28  1  0
 26 29  1  0
 29 30  2  0
 11 31  2  0
 31 32  1  0
 32 33  2  0
 33  5  1  0
 33  9  1  0
 30 13  1  0
 30 17  1  0
 25 22  1  0
M  END
$$$$
