
     RDKit          3D

 28 30  0  0  0  0  0  0  0  0999 V2000
  -15.3802   43.7870  -20.8891 C   0  0  0  0  0  0  0  0  0  0  0  0
  -16.3333   43.1492  -21.9146 C   0  0  0  0  0  0  0  0  0  0  0  0
  -17.3617   42.3440  -21.1624 C   0  0  0  0  0  0  0  0  0  0  0  0
  -16.7512   41.4087  -20.3246 F   0  0  0  0  0  0  0  0  0  0  0  0
  -17.9471   43.2494  -20.2657 F   0  0  0  0  0  0  0  0  0  0  0  0
  -18.3694   41.7137  -22.0269 C   0  0  0  0  0  0  0  0  0  0  0  0
  -19.1006   42.6073  -22.8078 C   0  0  0  0  0  0  0  0  0  0  0  0
  -19.9935   42.2627  -23.7872 C   0  0  0  0  0  0  0  0  0  0  0  0
  -20.7137   43.2005  -24.5558 N   0  0  0  0  0  0  0  0  0  0  0  0
  -20.5234   44.6103  -24.2989 C   0  0  0  0  0  0  0  0  0  0  0  0
  -20.5060   45.4692  -25.5125 C   0  0  0  0  0  0  0  0  0  0  0  0
  -20.7336   44.6611  -26.7461 C   0  0  0  0  0  0  0  0  0  0  0  0
  -20.8419   45.6202  -28.2178 S   0  0  0  0  0  6  0  0  0  0  0  0
  -21.8019   47.0902  -27.9871 C   0  0  0  0  0  0  0  0  0  0  0  0
  -21.4726   44.7290  -29.2793 O   0  0  0  0  0  0  0  0  0  0  0  0
  -19.4535   45.9180  -28.7071 O   0  0  0  0  0  0  0  0  0  0  0  0
  -21.9808   43.8208  -26.5504 C   0  0  0  0  0  0  0  0  0  0  0  0
  -21.6202   42.7123  -25.5753 C   0  0  0  0  0  0  0  0  0  0  0  0
  -20.1325   40.9245  -23.9623 N   0  0  0  0  0  0  0  0  0  0  0  0
  -19.4494   40.0536  -23.2288 C   0  0  0  0  0  0  0  0  0  0  0  0
  -19.4727   38.2607  -23.2267 S   0  0  0  0  0  0  0  0  0  0  0  0
  -18.3301   38.0167  -21.9519 C   0  0  0  0  0  0  0  0  0  0  0  0
  -17.8675   36.7360  -21.4205 C   0  0  0  0  0  0  0  0  0  0  0  0
  -18.3193   35.5472  -22.0232 N   0  0  0  0  0  0  0  0  0  0  0  0
  -17.0953   36.7072  -20.4611 O   0  0  0  0  0  0  0  0  0  0  0  0
  -17.9761   39.3042  -21.5793 C   0  0  0  0  0  0  0  0  0  0  0  0
  -17.0646   39.3646  -20.4333 N   0  0  0  0  0  0  0  0  0  0  0  0
  -18.5423   40.3315  -22.2319 C   0  0  0  0  0  0  0  0  0  0  0  0
  1  2  1  0
  2  3  1  0
  3  4  1  0
  3  5  1  0
  3  6  1  0
  6  7  2  0
  7  8  1  0
  8  9  1  0
  9 10  1  0
 10 11  1  0
 11 12  1  0
 12 13  1  0
 13 14  1  0
 13 15  2  0
 13 16  2  0
 12 17  1  0
 17 18  1  0
  8 19  2  0
 19 20  1  0
 20 21  1  0
 21 22  1  0
 22 23  1  0
 23 24  1  0
 23 25  2  0
 22 26  2  0
 26 27  1  0
 26 28  1  0
 28  6  1  0
 18  9  1  0
 28 20  2  0
M  END
$$$$
