
     RDKit          3D

 15 16  0  0  0  0  0  0  0  0999 V2000
  -19.1405   40.7889  -23.1130 N   0  0  0  0  0  0  0  0  0  0  0  0
  -18.4997   39.6330  -22.6154 C   0  0  0  0  0  0  0  0  0  0  0  0
  -17.3933   39.8013  -21.8307 N   0  0  0  0  0  0  0  0  0  0  0  0
  -16.7321   38.7503  -21.3222 C   0  0  0  0  0  0  0  0  0  0  0  0
  -17.2133   37.4927  -21.6227 C   0  0  0  0  0  0  0  0  0  0  0  0
  -18.3255   37.2881  -22.4103 C   0  0  0  0  0  0  0  0  0  0  0  0
  -18.8238   35.9260  -22.7194 C   0  0  0  0  0  0  0  0  0  0  0  0
  -18.7892   35.0322  -21.7682 C   0  0  0  0  0  0  0  0  0  0  0  0
  -19.4560   33.7505  -21.9033 C   0  0  0  0  0  0  0  0  0  0  0  0
  -20.8451   33.6898  -21.8801 C   0  0  0  0  0  0  0  0  0  0  0  0
  -21.5070   32.4968  -22.0049 C   0  0  0  0  0  0  0  0  0  0  0  0
  -20.7801   31.3308  -22.1568 C   0  0  0  0  0  0  0  0  0  0  0  0
  -19.4024   31.3383  -22.1860 C   0  0  0  0  0  0  0  0  0  0  0  0
  -18.7649   32.5809  -22.0548 C   0  0  0  0  0  0  0  0  0  0  0  0
  -18.9423   38.3797  -22.8885 N   0  0  0  0  0  0  0  0  0  0  0  0
  1  2  1  0
  2  3  2  0
  3  4  1  0
  4  5  2  0
  5  6  1  0
  6  7  1  0
  7  8  2  0
  8  9  1  0
  9 10  2  0
 10 11  1  0
 11 12  2  0
 12 13  1  0
 13 14  2  0
  6 15  2  0
 15  2  1  0
 14  9  1  0
M  END
$$$$
