
     RDKit          3D

 19 20  0  0  0  0  0  0  0  0999 V2000
  -27.2124   23.9203  -31.0770 C   0  0  0  0  0  0  0  0  0  0  0  0
  -27.7725   22.5369  -31.1789 C   0  0  0  0  0  0  0  0  0  0  0  0
  -28.9567   22.5126  -32.0687 C   0  0  0  0  0  0  0  0  0  0  0  0
  -29.7180   21.5133  -32.0292 O   0  0  0  0  0  0  0  0  0  0  0  0
  -29.2640   23.5417  -32.9435 O   0  0  0  0  0  0  0  0  0  0  0  0
  -28.0876   21.9201  -29.8854 C   0  0  0  0  0  0  0  0  0  0  0  0
  -29.0337   22.4432  -29.0271 C   0  0  0  0  0  0  0  0  0  0  0  0
  -29.3454   21.8854  -27.8145 C   0  0  0  0  0  0  0  0  0  0  0  0
  -28.6965   20.7407  -27.4022 C   0  0  0  0  0  0  0  0  0  0  0  0
  -27.7387   20.1769  -28.2272 C   0  0  0  0  0  0  0  0  0  0  0  0
  -27.0824   18.9649  -27.7611 C   0  0  0  0  0  0  0  0  0  0  0  0
  -25.8044   18.9013  -27.8301 O   0  0  0  0  0  0  0  0  0  0  0  0
  -27.7536   17.8095  -27.2190 C   0  0  0  0  0  0  0  0  0  0  0  0
  -27.1379   17.0435  -26.2611 C   0  0  0  0  0  0  0  0  0  0  0  0
  -27.7554   15.9196  -25.7263 C   0  0  0  0  0  0  0  0  0  0  0  0
  -29.0078   15.5691  -26.1664 C   0  0  0  0  0  0  0  0  0  0  0  0
  -29.6527   16.3208  -27.1299 C   0  0  0  0  0  0  0  0  0  0  0  0
  -29.0083   17.4409  -27.6464 C   0  0  0  0  0  0  0  0  0  0  0  0
  -27.4437   20.7700  -29.4584 C   0  0  0  0  0  0  0  0  0  0  0  0
  1  2  1  0
  2  3  1  0
  3  4  2  0
  3  5  1  0
  2  6  1  0
  6  7  2  0
  7  8  1  0
  8  9  2  0
  9 10  1  0
 10 11  1  0
 11 12  2  0
 11 13  1  0
 13 14  2  0
 14 15  1  0
 15 16  2  0
 16 17  1  0
 17 18  2  0
 10 19  2  0
 19  6  1  0
 18 13  1  0
M  END
$$$$
