
     RDKit          3D

 32 35  0  0  0  0  0  0  0  0999 V2000
  -24.8906   18.9739  -28.3445 O   0  0  0  0  0  0  0  0  0  0  0  0
  -25.1773   19.9998  -28.9564 C   0  0  0  0  0  0  0  0  0  0  0  0
  -24.1838   20.7794  -29.5648 N   0  0  0  0  0  0  0  0  0  0  0  0
  -23.9371   20.9148  -30.9578 C   0  0  0  0  0  0  0  0  0  0  0  0
  -24.1570   22.0407  -31.6842 C   0  0  0  0  0  0  0  0  0  0  0  0
  -23.8857   22.0913  -33.0569 C   0  0  0  0  0  0  0  0  0  0  0  0
  -23.3845   20.9824  -33.6979 C   0  0  0  0  0  0  0  0  0  0  0  0
  -23.1474   19.8121  -32.9835 C   0  0  0  0  0  0  0  0  0  0  0  0
  -23.4268   19.8097  -31.6484 C   0  0  0  0  0  0  0  0  0  0  0  0
  -26.5723   20.3520  -29.0129 N   0  0  0  0  0  0  0  0  0  0  0  0
  -27.5174   19.5465  -28.3254 C   0  0  0  0  0  0  0  0  0  0  0  0
  -27.4825   19.4888  -26.9426 C   0  0  0  0  0  0  0  0  0  0  0  0
  -28.3871   18.7157  -26.2446 C   0  0  0  0  0  0  0  0  0  0  0  0
  -29.3561   17.9737  -26.8873 C   0  0  0  0  0  0  0  0  0  0  0  0
  -30.3137   17.1534  -26.1279 C   0  0  0  0  0  0  0  0  0  0  0  0
  -29.8904   16.1584  -25.2729 C   0  0  0  0  0  0  0  0  0  0  0  0
  -30.8212   15.4183  -24.5834 C   0  0  0  0  0  0  0  0  0  0  0  0
  -32.1978   15.6158  -24.6975 C   0  0  0  0  0  0  0  0  0  0  0  0
  -33.1397   14.8055  -23.9678 C   0  0  0  0  0  0  0  0  0  0  0  0
  -32.6724   13.9943  -23.0892 O   0  0  0  0  0  0  0  0  0  0  0  0
  -34.5979   14.8226  -24.1392 C   0  0  2  0  0  0  0  0  0  0  0  0
  -35.3767   15.2015  -22.9139 C   0  0  0  0  0  0  0  0  0  0  0  0
  -36.7806   14.6906  -23.2778 C   0  0  0  0  0  0  0  0  0  0  0  0
  -36.4602   13.3084  -23.7999 C   0  0  0  0  0  0  0  0  0  0  0  0
  -35.1186   13.4395  -24.4852 C   0  0  1  0  0  0  0  0  0  0  0  0
  -35.2954   13.2282  -25.9254 C   0  0  0  0  0  0  0  0  0  0  0  0
  -36.3780   13.5445  -26.4983 O   0  0  0  0  0  0  0  0  0  0  0  0
  -34.3206   12.6818  -26.7498 O   0  0  0  0  0  0  0  0  0  0  0  0
  -32.6051   16.6048  -25.5485 C   0  0  0  0  0  0  0  0  0  0  0  0
  -31.6673   17.3656  -26.2561 C   0  0  0  0  0  0  0  0  0  0  0  0
  -29.3980   18.0253  -28.2646 C   0  0  0  0  0  0  0  0  0  0  0  0
  -28.4902   18.8009  -28.9590 C   0  0  0  0  0  0  0  0  0  0  0  0
  1  2  2  0
  2  3  1  0
  3  4  1  0
  4  5  2  0
  5  6  1  0
  6  7  2  0
  7  8  1  0
  8  9  2  0
  2 10  1  0
 10 11  1  0
 11 12  2  0
 12 13  1  0
 13 14  2  0
 14 15  1  0
 15 16  2  0
 16 17  1  0
 17 18  2  0
 18 19  1  0
 19 20  2  0
 21 19  1  1
 21 22  1  0
 22 23  1  0
 23 24  1  0
 24 25  1  0
 25 26  1  6
 26 27  2  0
 26 28  1  0
 18 29  1  0
 29 30  2  0
 14 31  1  0
 31 32  2  0
  9  4  1  0
 32 11  1  0
 30 15  1  0
 25 21  1  0
M  END
$$$$
