
     RDKit          3D

 16 18  0  0  0  0  0  0  0  0999 V2000
  -22.0415   39.1785  -28.1300 C   0  0  0  0  0  0  0  0  0  0  0  0
  -20.7046   39.1675  -27.7262 O   0  0  0  0  0  0  0  0  0  0  0  0
  -20.2446   38.8251  -26.4892 C   0  0  0  0  0  0  0  0  0  0  0  0
  -20.4437   37.5607  -25.9782 C   0  0  0  0  0  0  0  0  0  0  0  0
  -19.9873   37.1904  -24.7281 C   0  0  0  0  0  0  0  0  0  0  0  0
  -19.3073   38.1259  -23.9677 C   0  0  0  0  0  0  0  0  0  0  0  0
  -18.7526   38.0701  -22.7405 N   0  0  0  0  0  0  0  0  0  0  0  0
  -18.1894   39.2359  -22.4001 C   0  0  0  0  0  0  0  0  0  0  0  0
  -17.5171   39.6598  -21.2771 C   0  0  0  0  0  0  0  0  0  0  0  0
  -17.2227   38.6120  -19.8713 S   0  0  0  0  0  0  0  0  0  0  0  0
  -17.0683   40.9193  -21.2505 N   0  0  0  0  0  0  0  0  0  0  0  0
  -17.2633   41.7698  -22.2974 C   0  0  0  0  0  0  0  0  0  0  0  0
  -17.9242   41.3366  -23.3892 N   0  0  0  0  0  0  0  0  0  0  0  0
  -18.4049   40.0810  -23.4869 C   0  0  0  0  0  0  0  0  0  0  0  0
  -19.0934   39.3974  -24.4522 C   0  0  0  0  0  0  0  0  0  0  0  0
  -19.5541   39.7489  -25.6973 C   0  0  0  0  0  0  0  0  0  0  0  0
  1  2  1  0
  2  3  1  0
  3  4  2  0
  4  5  1  0
  5  6  2  0
  6  7  1  0
  7  8  1  0
  8  9  2  0
  9 10  1  0
  9 11  1  0
 11 12  2  0
 12 13  1  0
 13 14  2  0
 14 15  1  0
 15 16  2  0
 16  3  1  0
 15  6  1  0
 14  8  1  0
M  END
$$$$
