
     RDKit          3D

 33 37  0  0  0  0  0  0  0  0999 V2000
   -8.4920    0.1214  -34.2318 C   0  0  0  0  0  0  0  0  0  0  0  0
   -9.6710    0.3615  -33.7657 C   0  0  0  0  0  0  0  0  0  0  0  0
  -10.0628    1.2834  -32.7532 C   0  0  0  0  0  0  0  0  0  0  0  0
   -9.1675    1.4884  -31.8289 O   0  0  0  0  0  0  0  0  0  0  0  0
  -11.2336    1.9831  -32.6067 N   0  0  0  0  0  0  0  0  0  0  0  0
  -11.3745    3.2093  -31.8703 C   0  0  0  0  0  0  0  0  0  0  0  0
  -12.8296    3.7048  -31.9319 C   0  0  0  0  0  0  0  0  0  0  0  0
  -13.8174    2.6458  -31.5980 C   0  0  0  0  0  0  0  0  0  0  0  0
  -13.4305    1.2727  -32.1022 C   0  0  0  0  0  0  0  0  0  0  0  0
  -14.6276    0.5464  -32.5083 N   0  0  0  0  0  0  0  0  0  0  0  0
  -15.6574    0.9358  -33.1943 N   0  0  0  0  0  0  0  0  0  0  0  0
  -16.5792   -0.0583  -33.3637 C   0  0  0  0  0  0  0  0  0  0  0  0
  -17.8578    0.0924  -34.0850 C   0  0  0  0  0  0  0  0  0  0  0  0
  -18.5011   -0.9416  -34.6961 C   0  0  0  0  0  0  0  0  0  0  0  0
  -19.7261   -0.7613  -35.3480 C   0  0  0  0  0  0  0  0  0  0  0  0
  -20.3057    0.4865  -35.3806 C   0  0  0  0  0  0  0  0  0  0  0  0
  -21.5184    0.7389  -36.0084 O   0  0  0  0  0  0  0  0  0  0  0  0
  -22.6660    0.1195  -35.5960 C   0  0  0  0  0  0  0  0  0  0  0  0
  -23.3796    0.6473  -34.5594 C   0  0  0  0  0  0  0  0  0  0  0  0
  -24.5385   -0.0228  -34.1810 C   0  0  0  0  0  0  0  0  0  0  0  0
  -24.9608   -1.1716  -34.8159 C   0  0  0  0  0  0  0  0  0  0  0  0
  -24.2158   -1.6832  -35.8644 C   0  0  0  0  0  0  0  0  0  0  0  0
  -23.0620   -1.0318  -36.2546 C   0  0  0  0  0  0  0  0  0  0  0  0
  -19.6746    1.5497  -34.7705 C   0  0  0  0  0  0  0  0  0  0  0  0
  -18.4751    1.3373  -34.1402 C   0  0  0  0  0  0  0  0  0  0  0  0
  -16.0529   -1.1476  -32.7163 C   0  0  0  0  0  0  0  0  0  0  0  0
  -16.5298   -2.4266  -32.5376 C   0  0  0  0  0  0  0  0  0  0  0  0
  -17.8120   -2.8402  -33.0624 N   0  0  0  0  0  0  0  0  0  0  0  0
  -15.7751   -3.2964  -31.8324 N   0  0  0  0  0  0  0  0  0  0  0  0
  -14.5948   -2.9193  -31.3217 C   0  0  0  0  0  0  0  0  0  0  0  0
  -14.1319   -1.6699  -31.4961 N   0  0  0  0  0  0  0  0  0  0  0  0
  -14.8409   -0.7431  -32.1956 C   0  0  0  0  0  0  0  0  0  0  0  0
  -12.4723    1.4614  -33.2436 C   0  0  0  0  0  0  0  0  0  0  0  0
  1  2  2  0
  2  3  1  0
  3  4  2  0
  3  5  1  0
  5  6  1  0
  6  7  1  0
  7  8  1  0
  8  9  1  0
  9 10  1  0
 10 11  1  0
 11 12  2  0
 12 13  1  0
 13 14  2  0
 14 15  1  0
 15 16  2  0
 16 17  1  0
 17 18  1  0
 18 19  2  0
 19 20  1  0
 20 21  2  0
 21 22  1  0
 22 23  2  0
 16 24  1  0
 24 25  2  0
 12 26  1  0
 26 27  2  0
 27 28  1  0
 27 29  1  0
 29 30  2  0
 30 31  1  0
 31 32  2  0
  9 33  1  0
 33  5  1  0
 32 10  1  0
 25 13  1  0
 32 26  1  0
 23 18  1  0
M  END
$$$$
