
     RDKit          3D

 24 27  0  0  0  0  0  0  0  0999 V2000
  -17.8468   32.6712  -21.7671 C   0  0  0  0  0  0  0  0  0  0  0  0
  -18.0828   34.1374  -21.9544 C   0  0  0  0  0  0  0  0  0  0  0  0
  -18.9628   34.8234  -21.1638 C   0  0  0  0  0  0  0  0  0  0  0  0
  -19.1980   36.1746  -21.3161 C   0  0  0  0  0  0  0  0  0  0  0  0
  -18.5382   36.8916  -22.2924 C   0  0  0  0  0  0  0  0  0  0  0  0
  -18.7255   38.2705  -22.5080 N   0  0  0  0  0  0  0  0  0  0  0  0
  -19.5123   38.7124  -23.5038 C   0  0  0  0  0  0  0  0  0  0  0  0
  -19.7406   39.9781  -23.7734 N   0  0  0  0  0  0  0  0  0  0  0  0
  -19.1889   41.0162  -23.0523 C   0  0  0  0  0  0  0  0  0  0  0  0
  -18.3795   40.5764  -22.0279 C   0  0  0  0  0  0  0  0  0  0  0  0
  -17.8149   42.0691  -21.2922 S   0  0  0  0  0  0  0  0  0  0  0  0
  -18.6814   43.1985  -22.3813 C   0  0  0  0  0  0  0  0  0  0  0  0
  -18.7127   44.5219  -22.4127 N   0  0  0  0  0  0  0  0  0  0  0  0
  -19.4327   45.1802  -23.3285 C   0  0  0  0  0  0  0  0  0  0  0  0
  -20.1244   44.3893  -24.2169 C   0  0  0  0  0  0  0  0  0  0  0  0
  -20.1072   43.0191  -24.2033 C   0  0  0  0  0  0  0  0  0  0  0  0
  -20.8803   42.3597  -25.1627 N   0  0  0  0  0  0  0  0  0  0  0  0
  -21.3075   43.0009  -26.3794 C   0  0  0  0  0  0  0  0  0  0  0  0
  -21.3022   40.9625  -24.9781 C   0  0  0  0  0  0  0  0  0  0  0  0
  -19.3322   42.3405  -23.2186 C   0  0  0  0  0  0  0  0  0  0  0  0
  -18.1540   39.2398  -21.7629 C   0  0  0  0  0  0  0  0  0  0  0  0
  -17.4053   38.9292  -20.8135 O   0  0  0  0  0  0  0  0  0  0  0  0
  -17.6477   36.2025  -23.0940 C   0  0  0  0  0  0  0  0  0  0  0  0
  -17.4173   34.8448  -22.9341 C   0  0  0  0  0  0  0  0  0  0  0  0
  1  2  1  0
  2  3  2  0
  3  4  1  0
  4  5  2  0
  5  6  1  0
  6  7  1  0
  7  8  2  0
  8  9  1  0
  9 10  2  0
 10 11  1  0
 11 12  1  0
 12 13  2  0
 13 14  1  0
 14 15  2  0
 15 16  1  0
 16 17  1  0
 17 18  1  0
 17 19  1  0
 16 20  2  0
 10 21  1  0
 21 22  2  0
  5 23  1  0
 23 24  2  0
 24  2  1  0
 21  6  1  0
 20  9  1  0
 20 12  1  0
M  END
$$$$
