
     RDKit          3D

 31 36  0  0  0  0  0  0  0  0999 V2000
  -31.3483   16.2405  -27.5746 O   0  0  0  0  0  0  0  0  0  0  0  0
  -31.4802   16.6318  -26.3708 C   0  0  0  0  0  0  0  0  0  0  0  0
  -30.4635   17.4208  -25.7982 N   0  0  0  0  0  0  0  0  0  0  0  0
  -29.3628   17.9754  -26.5275 C   0  0  0  0  0  0  0  0  0  0  0  0
  -28.4422   18.7132  -26.4601 N   0  0  0  0  0  0  0  0  0  0  0  0
  -27.5551   19.0306  -27.3685 C   0  0  0  0  0  0  0  0  0  0  0  0
  -26.4606   19.9118  -27.2783 C   0  0  0  0  0  0  0  0  0  0  0  0
  -25.6479   20.1018  -28.3597 C   0  0  0  0  0  0  0  0  0  0  0  0
  -25.7900   19.4990  -29.5791 C   0  0  0  0  0  0  0  0  0  0  0  0
  -24.9673   19.6766  -30.7101 N   0  0  0  0  0  0  0  0  0  0  0  0
  -24.1218   18.6624  -31.2475 C   0  0  0  0  0  0  0  0  0  0  0  0
  -24.1846   17.5373  -30.6617 O   0  0  0  0  0  0  0  0  0  0  0  0
  -23.2327   18.8938  -32.4025 C   0  0  0  0  0  0  0  0  0  0  0  0
  -22.2714   20.0134  -32.0357 C   0  0  0  0  0  0  0  0  0  0  0  0
  -21.3821   20.3574  -33.2104 C   0  0  0  0  0  0  0  0  0  0  0  0
  -20.5893   19.1176  -33.5582 C   0  0  0  0  0  0  0  0  0  0  0  0
  -21.5325   18.0112  -33.9121 C   0  0  0  0  0  0  0  0  0  0  0  0
  -22.3507   18.4056  -35.1250 C   0  0  0  0  0  0  0  0  0  0  0  0
  -23.1405   19.6364  -34.7695 C   0  0  0  0  0  0  0  0  0  0  0  0
  -22.2246   20.7891  -34.3808 C   0  0  0  0  0  0  0  0  0  0  0  0
  -24.0368   19.3685  -33.5957 C   0  0  0  0  0  0  0  0  0  0  0  0
  -22.3884   17.6851  -32.7313 C   0  0  0  0  0  0  0  0  0  0  0  0
  -26.8755   18.6204  -29.6800 C   0  0  0  0  0  0  0  0  0  0  0  0
  -27.6970   18.4268  -28.5906 C   0  0  0  0  0  0  0  0  0  0  0  0
  -29.1493   17.4132  -28.3254 S   0  0  0  0  0  0  0  0  0  0  0  0
  -32.6578   16.2738  -25.5951 C   0  0  0  0  0  0  0  0  0  0  0  0
  -32.9043   16.6912  -24.3126 C   0  0  0  0  0  0  0  0  0  0  0  0
  -34.0573   16.3113  -23.6198 C   0  0  0  0  0  0  0  0  0  0  0  0
  -34.9993   15.4953  -24.2045 C   0  0  0  0  0  0  0  0  0  0  0  0
  -34.7650   15.0678  -25.4934 C   0  0  0  0  0  0  0  0  0  0  0  0
  -33.6273   15.4443  -26.1732 C   0  0  0  0  0  0  0  0  0  0  0  0
  1  2  2  0
  2  3  1  0
  3  4  1  0
  4  5  2  0
  5  6  1  0
  6  7  2  0
  7  8  1  0
  8  9  2  0
  9 10  1  0
 10 11  1  0
 11 12  2  0
 11 13  1  0
 13 14  1  0
 14 15  1  0
 15 16  1  0
 16 17  1  0
 17 18  1  0
 18 19  1  0
 19 20  1  0
 19 21  1  0
 17 22  1  0
  9 23  1  0
 23 24  2  0
 24 25  1  0
  2 26  1  0
 26 27  2  0
 27 28  1  0
 28 29  2  0
 29 30  1  0
 30 31  2  0
 25  4  1  0
 31 26  1  0
 24  6  1  0
 21 13  1  0
 22 13  1  0
 20 15  1  0
M  END
$$$$
