
     RDKit          3D

 40 44  0  0  0  0  0  0  0  0999 V2000
  -25.2908   11.7110  -25.2796 C   0  0  0  0  0  0  0  0  0  0  0  0
  -25.2434   11.9155  -26.8022 C   0  0  0  0  0  0  0  0  0  0  0  0
  -24.5313   13.2013  -27.0250 C   0  0  0  0  0  0  0  0  0  0  0  0
  -24.4492   13.6791  -28.4004 C   0  0  0  0  0  0  0  0  0  0  0  0
  -24.4703   12.7947  -29.4820 C   0  0  0  0  0  0  0  0  0  0  0  0
  -24.4242   13.2282  -30.7865 C   0  0  0  0  0  0  0  0  0  0  0  0
  -24.4499   12.2682  -31.9372 C   0  0  0  0  0  0  0  0  0  0  0  0
  -24.3575   14.5279  -31.0424 N   0  0  0  0  0  0  0  0  0  0  0  0
  -24.3354   15.4000  -30.0287 C   0  0  0  0  0  0  0  0  0  0  0  0
  -24.2704   16.6467  -30.2956 O   0  0  0  0  0  0  0  0  0  0  0  0
  -24.3794   15.0151  -28.6821 C   0  0  0  0  0  0  0  0  0  0  0  0
  -24.3171   16.0900  -27.6824 C   0  0  0  0  0  0  0  0  0  0  0  0
  -25.5973   16.8123  -27.6039 N   0  0  0  0  0  0  0  0  0  0  0  0
  -26.5343   16.4670  -26.5857 C   0  0  0  0  0  0  0  0  0  0  0  0
  -26.1658   15.5888  -25.7728 O   0  0  0  0  0  0  0  0  0  0  0  0
  -27.8449   17.0982  -26.4956 C   0  0  0  0  0  0  0  0  0  0  0  0
  -29.0003   16.3509  -26.2158 C   0  0  0  0  0  0  0  0  0  0  0  0
  -30.2122   16.9715  -26.1169 C   0  0  0  0  0  0  0  0  0  0  0  0
  -31.4246   16.2326  -25.8145 C   0  0  0  0  0  0  0  0  0  0  0  0
  -32.6743   16.8444  -25.9496 C   0  0  0  0  0  0  0  0  0  0  0  0
  -33.8069   16.1362  -25.6952 C   0  0  0  0  0  0  0  0  0  0  0  0
  -33.7758   14.8137  -25.3012 C   0  0  0  0  0  0  0  0  0  0  0  0
  -34.9603   14.0835  -25.0263 N   0  0  0  0  0  0  0  0  0  0  0  0
  -36.2373   14.6351  -25.4557 C   0  0  0  0  0  0  0  0  0  0  0  0
  -37.2376   14.6052  -24.3062 C   0  0  0  0  0  0  0  0  0  0  0  0
  -37.3209   13.2950  -23.7152 N   0  0  0  0  0  0  0  0  0  0  0  0
  -37.1167   13.2885  -22.2913 C   0  0  0  0  0  0  0  0  0  0  0  0
  -36.4451   12.3333  -24.3590 C   0  0  0  0  0  0  0  0  0  0  0  0
  -35.0036   12.8004  -24.3529 C   0  0  0  0  0  0  0  0  0  0  0  0
  -32.5464   14.2464  -25.1773 N   0  0  0  0  0  0  0  0  0  0  0  0
  -31.4073   14.9185  -25.4214 C   0  0  0  0  0  0  0  0  0  0  0  0
  -30.3458   18.3213  -26.2828 N   0  0  0  0  0  0  0  0  0  0  0  0
  -29.2566   19.0622  -26.5527 C   0  0  0  0  0  0  0  0  0  0  0  0
  -28.0295   18.4609  -26.6569 C   0  0  0  0  0  0  0  0  0  0  0  0
  -27.1371   19.4551  -26.9428 C   0  0  0  0  0  0  0  0  0  0  0  0
  -27.8469   20.5979  -26.9976 N   0  0  0  0  0  0  0  0  0  0  0  0
  -29.1155   20.4022  -26.7699 N   0  0  0  0  0  0  0  0  0  0  0  0
  -30.2278   21.3609  -26.7417 C   0  0  0  0  0  0  0  0  0  0  0  0
  -30.6828   21.6751  -28.1566 C   0  0  0  0  0  0  0  0  0  0  0  0
  -29.8448   22.6240  -26.0407 C   0  0  0  0  0  0  0  0  0  0  0  0
  1  2  1  0
  2  3  1  0
  3  4  1  0
  4  5  1  0
  5  6  2  0
  6  7  1  0
  6  8  1  0
  8  9  1  0
  9 10  2  0
  9 11  1  0
 11 12  1  0
 12 13  1  0
 13 14  1  0
 14 15  2  0
 14 16  1  0
 16 17  2  0
 17 18  1  0
 18 19  1  0
 19 20  2  0
 20 21  1  0
 21 22  2  0
 22 23  1  0
 23 24  1  0
 24 25  1  0
 25 26  1  0
 26 27  1  0
 26 28  1  0
 28 29  1  0
 22 30  1  0
 30 31  2  0
 18 32  2  0
 32 33  1  0
 33 34  2  0
 34 35  1  0
 35 36  2  0
 36 37  1  0
 37 38  1  0
 38 39  1  0
 38 40  1  0
 11  4  2  0
 34 16  1  0
 31 19  1  0
 37 33  1  0
 29 23  1  0
M  END
$$$$
