
     RDKit          3D

 28 30  0  0  0  0  0  0  0  0999 V2000
  -16.4890   41.0694  -20.9313 Cl  0  0  0  0  0  0  0  0  0  0  0  0
  -19.7316   33.2189  -23.4213 O   0  0  0  0  0  0  0  0  0  0  0  0
  -19.1562   34.1987  -22.9413 C   0  0  0  0  0  0  0  0  0  0  0  0
  -19.3503   34.8864  -21.7328 N   0  0  0  0  0  0  0  0  0  0  0  0
  -18.8263   36.1700  -21.6546 C   0  0  0  0  0  0  0  0  0  0  0  0
  -18.9111   36.9320  -20.6226 O   0  0  0  0  0  0  0  0  0  0  0  0
  -18.1392   36.6469  -22.8436 C   0  0  0  0  0  0  0  0  0  0  0  0
  -17.8326   37.8475  -23.2541 C   0  0  0  0  0  0  0  0  0  0  0  0
  -18.1862   39.0219  -22.4819 C   0  0  0  0  0  0  0  0  0  0  0  0
  -19.4731   39.1936  -22.0437 C   0  0  0  0  0  0  0  0  0  0  0  0
  -19.8011   40.2893  -21.2976 N   0  0  0  0  0  0  0  0  0  0  0  0
  -18.8789   41.2133  -20.9810 C   0  0  0  0  0  0  0  0  0  0  0  0
  -19.2064   42.2223  -20.2876 O   0  0  0  0  0  0  0  0  0  0  0  0
  -17.5685   41.0938  -21.3950 C   0  0  0  0  0  0  0  0  0  0  0  0
  -16.5727   42.0917  -21.0534 C   0  0  0  0  0  0  0  0  0  0  0  0
  -16.8938   43.4177  -21.1835 C   0  0  0  0  0  0  0  0  0  0  0  0
  -15.9201   44.3677  -20.8512 C   0  0  0  0  0  0  0  0  0  0  0  0
  -14.6771   43.9950  -20.4069 C   0  0  0  0  0  0  0  0  0  0  0  0
  -13.6730   44.9136  -20.0681 N   0  0  0  0  0  0  0  0  0  0  0  0
  -12.3924   44.3872  -19.5464 C   0  0  0  0  0  0  0  0  0  0  0  0
  -11.9212   45.3002  -18.4127 C   0  0  0  0  0  0  0  0  0  0  0  0
  -13.0414   46.0528  -17.8742 N   0  0  0  0  0  0  0  0  0  0  0  0
  -13.5522   47.0220  -18.8280 C   0  0  0  0  0  0  0  0  0  0  0  0
  -13.7402   46.3439  -20.1729 C   0  0  0  0  0  0  0  0  0  0  0  0
  -14.4476   42.6555  -20.3088 N   0  0  0  0  0  0  0  0  0  0  0  0
  -15.3360   41.7152  -20.6112 C   0  0  0  0  0  0  0  0  0  0  0  0
  -17.2543   39.9804  -22.1477 C   0  0  0  0  0  0  0  0  0  0  0  0
  -17.8032   35.0812  -23.7258 S   0  0  0  0  0  0  0  0  0  0  0  0
  2  3  2  0
  3  4  1  0
  4  5  1  0
  5  6  2  0
  5  7  1  0
  7  8  2  0
  8  9  1  0
  9 10  2  0
 10 11  1  0
 11 12  1  0
 12 13  2  0
 12 14  1  0
 14 15  1  0
 15 16  2  0
 16 17  1  0
 17 18  2  0
 18 19  1  0
 19 20  1  0
 20 21  1  0
 21 22  1  0
 22 23  1  0
 23 24  1  0
 18 25  1  0
 25 26  2  0
 14 27  2  0
  7 28  1  0
 28  3  1  0
 27  9  1  0
 26 15  1  0
 24 19  1  0
M  END
$$$$
