
     RDKit          3D

 26 29  0  0  0  0  0  0  0  0999 V2000
  -23.5381   22.2188  -42.2522 N   0  0  0  0  0  0  0  0  0  0  0  0
  -23.6956   22.8527  -40.9552 C   0  0  0  0  0  0  0  0  0  0  0  0
  -23.8337   23.4423  -39.8008 C   0  0  0  0  0  0  0  0  0  0  0  0
  -22.7584   23.5570  -38.9338 C   0  0  0  0  0  0  0  0  0  0  0  0
  -23.0445   23.9746  -37.5683 C   0  0  0  0  0  0  0  0  0  0  0  0
  -24.2838   24.2051  -37.2484 C   0  0  0  0  0  0  0  0  0  0  0  0
  -24.6938   24.5381  -35.8470 C   0  0  0  0  0  0  0  0  0  0  0  0
  -25.1445   25.7122  -35.3980 C   0  0  0  0  0  0  0  0  0  0  0  0
  -25.4273   25.9221  -34.0543 N   0  0  0  0  0  0  0  0  0  0  0  0
  -25.2383   24.9253  -33.1662 C   0  0  0  0  0  0  0  0  0  0  0  0
  -25.3855   24.8057  -31.8057 N   0  0  0  0  0  0  0  0  0  0  0  0
  -24.9808   23.5524  -31.4542 C   0  0  0  0  0  0  0  0  0  0  0  0
  -24.5874   22.8612  -32.5496 C   0  0  0  0  0  0  0  0  0  0  0  0
  -23.8675   21.6355  -32.7346 N   0  0  0  0  0  0  0  0  0  0  0  0
  -22.4621   21.6941  -32.3920 C   0  0  0  0  0  0  0  0  0  0  0  0
  -22.3293   22.8981  -31.7573 O   0  0  0  0  0  0  0  0  0  0  0  0
  -21.3319   20.9327  -32.5121 C   0  0  0  0  0  0  0  0  0  0  0  0
  -20.2293   21.2758  -31.6604 C   0  0  0  0  0  0  0  0  0  0  0  0
  -19.0744   20.6061  -31.6901 C   0  0  0  0  0  0  0  0  0  0  0  0
  -18.8803   19.5422  -32.5394 C   0  0  0  0  0  0  0  0  0  0  0  0
  -19.9168   19.2065  -33.3534 N   0  0  0  0  0  0  0  0  0  0  0  0
  -21.0663   19.8788  -33.3245 C   0  0  0  0  0  0  0  0  0  0  0  0
  -24.7617   23.7158  -33.6283 C   0  0  0  0  0  0  0  0  0  0  0  0
  -24.4792   23.4796  -34.9431 C   0  0  0  0  0  0  0  0  0  0  0  0
  -25.3923   24.1049  -38.1227 C   0  0  0  0  0  0  0  0  0  0  0  0
  -25.1719   23.7254  -39.4023 C   0  0  0  0  0  0  0  0  0  0  0  0
  1  2  3  0
  2  3  1  0
  3  4  2  0
  4  5  1  0
  5  6  2  0
  6  7  1  0
  7  8  2  0
  8  9  1  0
  9 10  2  0
 10 11  1  0
 11 12  1  0
 12 13  2  0
 13 14  1  0
 14 15  1  0
 15 16  2  0
 15 17  1  0
 17 18  2  0
 18 19  1  0
 19 20  2  0
 20 21  1  0
 21 22  2  0
 13 23  1  0
 23 24  2  0
  6 25  1  0
 25 26  2  0
 26  3  1  0
 24  7  1  0
 23 10  1  0
 22 17  1  0
M  END
$$$$
