
     RDKit          3D

 31 35  0  0  0  0  0  0  0  0999 V2000
  -20.9248   32.9104  -23.6242 C   0  0  0  0  0  0  0  0  0  0  0  0
  -20.1121   34.0847  -22.9147 C   0  0  0  0  0  0  0  0  0  0  0  0
  -19.5152   34.9838  -22.3743 C   0  0  0  0  0  0  0  0  0  0  0  0
  -18.8200   36.0214  -21.7764 C   0  0  0  0  0  0  0  0  0  0  0  0
  -18.5973   36.0682  -20.4636 C   0  0  0  0  0  0  0  0  0  0  0  0
  -18.2690   37.2280  -19.7748 N   0  0  0  0  0  0  0  0  0  0  0  0
  -18.1840   38.3654  -20.5114 C   0  0  0  0  0  0  0  0  0  0  0  0
  -18.3818   38.4354  -21.8480 C   0  0  0  0  0  0  0  0  0  0  0  0
  -18.4409   39.6195  -22.6941 C   0  0  0  0  0  0  0  0  0  0  0  0
  -18.7152   39.4964  -24.0325 C   0  0  0  0  0  0  0  0  0  0  0  0
  -18.7830   40.5291  -24.9297 C   0  0  0  0  0  0  0  0  0  0  0  0
  -18.5634   41.7825  -24.4657 C   0  0  0  0  0  0  0  0  0  0  0  0
  -18.2941   41.9830  -23.1298 C   0  0  0  0  0  0  0  0  0  0  0  0
  -18.2288   40.9202  -22.2491 C   0  0  0  0  0  0  0  0  0  0  0  0
  -18.1905   43.4714  -22.9497 C   0  0  2  0  0  0  0  0  0  0  0  0
  -16.8382   43.8740  -23.0472 N   0  0  0  0  0  0  0  0  0  0  0  0
  -16.5240   44.4993  -21.9113 C   0  0  0  0  0  0  0  0  0  0  0  0
  -15.1615   45.0487  -21.6907 C   0  0  0  0  0  0  0  0  0  0  0  0
  -17.7172   44.4943  -21.0759 C   0  0  0  0  0  0  0  0  0  0  0  0
  -17.7645   45.0537  -19.7550 N   0  0  0  0  0  0  0  0  0  0  0  0
  -18.6936   43.8944  -21.6862 N   0  0  0  0  0  0  0  0  0  0  0  0
  -19.0435   43.9798  -24.0862 C   0  0  1  0  0  0  0  0  0  0  0  0
  -20.4724   43.5641  -23.7904 C   0  0  0  0  0  0  0  0  0  0  0  0
  -21.4937   44.4613  -24.4237 C   0  0  0  0  0  0  0  0  0  0  0  0
  -21.0876   44.9619  -25.7927 C   0  0  2  0  0  0  0  0  0  0  0  0
  -21.3762   44.0510  -26.7801 O   0  0  0  0  0  0  0  0  0  0  0  0
  -22.2874   44.4774  -27.7304 C   0  0  0  0  0  0  0  0  0  0  0  0
  -19.7122   45.4905  -25.8346 C   0  0  0  0  0  0  0  0  0  0  0  0
  -18.9848   45.3930  -24.4903 C   0  0  0  0  0  0  0  0  0  0  0  0
  -18.4995   43.0663  -25.2169 C   0  0  0  0  0  0  0  0  0  0  0  0
  -18.6979   37.2359  -22.5280 C   0  0  0  0  0  0  0  0  0  0  0  0
  1  2  1  0
  2  3  3  0
  3  4  1  0
  4  5  2  0
  5  6  1  0
  6  7  2  0
  7  8  1  0
  8  9  1  0
  9 10  2  0
 10 11  1  0
 11 12  2  0
 12 13  1  0
 13 14  2  0
 13 15  1  0
 15 16  1  6
 16 17  2  0
 17 18  1  0
 17 19  1  0
 19 20  1  0
 19 21  2  0
 15 22  1  0
 22 23  1  1
 23 24  1  0
 24 25  1  0
 25 26  1  6
 26 27  1  0
 25 28  1  0
 28 29  1  0
 22 30  1  0
  8 31  2  0
 31  4  1  0
 14  9  1  0
 21 15  1  0
 29 22  1  0
 30 12  1  0
M  END
$$$$
