
     RDKit          3D

 28 31  0  0  0  0  0  0  0  0999 V2000
  -16.0928   31.4271  -24.9046 N   0  0  0  0  0  0  0  0  0  0  0  0
  -16.6339   32.2562  -23.9020 C   0  0  0  0  0  0  0  0  0  0  0  0
  -17.7601   33.0214  -24.1184 C   0  0  0  0  0  0  0  0  0  0  0  0
  -18.2842   33.8304  -23.1329 C   0  0  0  0  0  0  0  0  0  0  0  0
  -17.6933   33.9038  -21.8808 C   0  0  0  0  0  0  0  0  0  0  0  0
  -18.2586   34.7766  -20.8175 C   0  0  0  0  0  0  0  0  0  0  0  0
  -18.2272   36.1992  -21.3569 C   0  0  0  0  0  0  0  0  0  0  0  0
  -17.4223   37.0626  -20.5513 N   0  0  0  0  0  0  0  0  0  0  0  0
  -17.6809   38.4578  -20.5632 C   0  0  0  0  0  0  0  0  0  0  0  0
  -17.4862   39.2276  -19.4781 N   0  0  0  0  0  0  0  0  0  0  0  0
  -17.7200   40.5519  -19.4519 C   0  0  0  0  0  0  0  0  0  0  0  0
  -18.1710   41.1398  -20.5638 N   0  0  0  0  0  0  0  0  0  0  0  0
  -18.3936   40.4417  -21.6966 C   0  0  0  0  0  0  0  0  0  0  0  0
  -18.1518   39.1048  -21.7044 C   0  0  0  0  0  0  0  0  0  0  0  0
  -18.4416   38.6427  -22.9157 N   0  0  0  0  0  0  0  0  0  0  0  0
  -18.8601   39.6878  -23.6518 C   0  0  0  0  0  0  0  0  0  0  0  0
  -18.8411   40.8113  -22.9262 N   0  0  0  0  0  0  0  0  0  0  0  0
  -19.1892   42.1588  -23.2561 C   0  0  2  0  0  0  0  0  0  0  0  0
  -19.6999   42.2828  -24.5618 O   0  0  0  0  0  0  0  0  0  0  0  0
  -19.6462   43.6861  -24.7095 C   0  0  2  0  0  0  0  0  0  0  0  0
  -20.0198   44.0905  -26.1189 C   0  0  0  0  0  0  0  0  0  0  0  0
  -19.4515   43.1540  -26.9802 O   0  0  0  0  0  0  0  0  0  0  0  0
  -18.1786   43.9365  -24.4355 C   0  0  1  0  0  0  0  0  0  0  0  0
  -17.9593   45.2638  -24.0802 O   0  0  0  0  0  0  0  0  0  0  0  0
  -17.9281   42.9980  -23.2557 C   0  0  1  0  0  0  0  0  0  0  0  0
  -17.8483   43.6929  -22.0647 O   0  0  0  0  0  0  0  0  0  0  0  0
  -16.5661   33.1447  -21.6481 C   0  0  0  0  0  0  0  0  0  0  0  0
  -16.0453   32.3345  -22.6424 C   0  0  0  0  0  0  0  0  0  0  0  0
  1  2  1  0
  2  3  2  0
  3  4  1  0
  4  5  2  0
  5  6  1  0
  6  7  1  0
  7  8  1  0
  8  9  1  0
  9 10  2  0
 10 11  1  0
 11 12  2  0
 12 13  1  0
 13 14  2  0
 14 15  1  0
 15 16  2  0
 16 17  1  0
 18 17  1  6
 18 19  1  0
 19 20  1  0
 20 21  1  6
 21 22  1  0
 20 23  1  0
 23 24  1  1
 23 25  1  0
 25 26  1  1
  5 27  1  0
 27 28  2  0
 28  2  1  0
 14  9  1  0
 25 18  1  0
 17 13  1  0
M  END
$$$$
