
     RDKit          3D

 28 32  0  0  0  0  0  0  0  0999 V2000
  -19.7859   39.0448  -24.3924 O   0  0  0  0  0  0  0  0  0  0  0  0
  -19.5673   40.2246  -24.0461 C   0  0  0  0  0  0  0  0  0  0  0  0
  -19.1955   40.5390  -22.7194 N   0  0  0  0  0  0  0  0  0  0  0  0
  -18.6306   39.5907  -21.8308 C   0  0  0  0  0  0  0  0  0  0  0  0
  -18.8112   38.2211  -21.8247 C   0  0  0  0  0  0  0  0  0  0  0  0
  -18.0637   37.7480  -20.7843 N   0  0  0  0  0  0  0  0  0  0  0  0
  -17.4644   38.7448  -20.1889 N   0  0  0  0  0  0  0  0  0  0  0  0
  -17.7772   39.9120  -20.7923 C   0  0  0  0  0  0  0  0  0  0  0  0
  -17.3207   41.2510  -20.4394 C   0  0  0  0  0  0  0  0  0  0  0  0
  -16.3789   41.6476  -19.5728 N   0  0  0  0  0  0  0  0  0  0  0  0
  -16.2969   43.0018  -19.5746 C   0  0  0  0  0  0  0  0  0  0  0  0
  -15.5209   43.9161  -18.8949 C   0  0  0  0  0  0  0  0  0  0  0  0
  -15.6465   45.2747  -19.0931 C   0  0  0  0  0  0  0  0  0  0  0  0
  -16.5788   45.7774  -20.0033 C   0  0  0  0  0  0  0  0  0  0  0  0
  -16.7174   47.2403  -20.2215 C   0  0  0  0  0  0  0  0  0  0  0  0
  -17.7928   47.8099  -19.4731 N   0  0  0  0  0  0  0  0  0  0  0  0
  -17.3797   48.6357  -18.3849 C   0  0  0  0  0  0  0  0  0  0  0  0
  -17.6243   50.0918  -18.5875 C   0  0  0  0  0  0  0  0  0  0  0  0
  -18.8565   50.4322  -19.0815 O   0  0  0  0  0  0  0  0  0  0  0  0
  -19.6395   49.3235  -19.3380 C   0  0  0  0  0  0  0  0  0  0  0  0
  -18.8318   48.4193  -20.2810 C   0  0  0  0  0  0  0  0  0  0  0  0
  -17.3460   44.8507  -20.6740 C   0  0  0  0  0  0  0  0  0  0  0  0
  -17.2211   43.4809  -20.4757 C   0  0  0  0  0  0  0  0  0  0  0  0
  -17.8280   42.3995  -20.9859 N   0  0  0  0  0  0  0  0  0  0  0  0
  -19.7151   41.2138  -25.0588 N   0  0  0  0  0  0  0  0  0  0  0  0
  -19.4179   42.6024  -24.8149 C   0  0  0  0  0  0  0  0  0  0  0  0
  -20.3270   43.6757  -25.2785 C   0  0  0  0  0  0  0  0  0  0  0  0
  -20.1813   43.3711  -23.7996 C   0  0  0  0  0  0  0  0  0  0  0  0
  1  2  2  0
  2  3  1  0
  3  4  1  0
  4  5  2  0
  5  6  1  0
  6  7  1  0
  7  8  2  0
  8  9  1  0
  9 10  2  0
 10 11  1  0
 11 12  2  0
 12 13  1  0
 13 14  2  0
 14 15  1  0
 15 16  1  0
 16 17  1  0
 17 18  1  0
 18 19  1  0
 19 20  1  0
 20 21  1  0
 14 22  1  0
 22 23  2  0
 23 24  1  0
  2 25  1  0
 25 26  1  0
 26 27  1  0
 27 28  1  0
  8  4  1  0
 24  9  1  0
 28 26  1  0
 23 11  1  0
 21 16  1  0
M  END
$$$$
