
     RDKit          3D

 23 24  0  0  0  0  0  0  0  0999 V2000
  -21.4082   38.2966  -24.5686 C   0  0  0  0  0  0  0  0  0  0  0  0
  -20.2363   38.5496  -25.4767 C   0  0  0  0  0  0  0  0  0  0  0  0
  -18.9599   38.4848  -24.9279 N   0  0  0  0  0  0  0  0  0  0  0  0
  -18.6668   38.8087  -23.6129 C   0  0  1  0  0  0  0  0  0  0  0  0
  -19.5435   39.7054  -22.8427 C   0  0  0  0  0  0  0  0  0  0  0  0
  -18.7947   40.4451  -21.8097 N   0  0  0  0  0  0  0  0  0  0  0  0
  -17.5932   41.0277  -22.3161 C   0  0  0  0  0  0  0  0  0  0  0  0
  -17.2967   42.2716  -21.4720 C   0  0  0  0  0  0  0  0  0  0  0  0
  -16.0018   42.9135  -21.9017 C   0  0  0  0  0  0  0  0  0  0  0  0
  -15.7496   44.0618  -21.1896 O   0  0  0  0  0  0  0  0  0  0  0  0
  -16.1593   45.2320  -21.7746 C   0  0  0  0  0  0  0  0  0  0  0  0
  -18.4754   39.2844  -20.5829 S   0  0  0  0  0  6  0  0  0  0  0  0
  -17.2412   39.6808  -19.8497 O   0  0  0  0  0  0  0  0  0  0  0  0
  -19.6300   39.2736  -19.6039 O   0  0  0  0  0  0  0  0  0  0  0  0
  -18.3406   37.7489  -21.3801 C   0  0  0  0  0  0  0  0  0  0  0  0
  -18.0656   36.1027  -20.6938 S   0  0  0  0  0  0  0  0  0  0  0  0
  -18.0916   35.2899  -22.3056 C   0  0  0  0  0  0  0  0  0  0  0  0
  -17.8815   33.5635  -22.5305 S   0  0  0  0  0  6  0  0  0  0  0  0
  -16.8595   33.2609  -23.8659 N   0  0  0  0  0  0  0  0  0  0  0  0
  -19.2492   33.0044  -22.8700 O   0  0  0  0  0  0  0  0  0  0  0  0
  -17.3945   32.9678  -21.2659 O   0  0  0  0  0  0  0  0  0  0  0  0
  -18.2947   36.2787  -23.1738 C   0  0  0  0  0  0  0  0  0  0  0  0
  -18.4296   37.5571  -22.7571 C   0  0  0  0  0  0  0  0  0  0  0  0
  1  2  1  0
  2  3  1  0
  4  3  1  6
  4  5  1  0
  5  6  1  0
  6  7  1  0
  7  8  1  0
  8  9  1  0
  9 10  1  0
 10 11  1  0
  6 12  1  0
 12 13  2  0
 12 14  2  0
 12 15  1  0
 15 16  1  0
 16 17  1  0
 17 18  1  0
 18 19  1  0
 18 20  2  0
 18 21  2  0
 17 22  2  0
 22 23  1  0
 23  4  1  0
 23 15  2  0
M  END
$$$$
