
     RDKit          3D

 20 23  0  0  0  0  0  0  0  0999 V2000
  -18.4880   39.2355  -18.2860 O   0  0  0  0  0  0  0  0  0  0  0  0
  -18.3920   39.5196  -19.5126 C   0  0  0  0  0  0  0  0  0  0  0  0
  -18.2840   40.9130  -20.0055 C   0  0  0  0  0  0  0  0  0  0  0  0
  -18.2005   40.7142  -21.4414 N   0  0  0  0  0  0  0  0  0  0  0  0
  -18.2570   39.3189  -21.7347 C   0  0  0  0  0  0  0  0  0  0  0  0
  -18.3660   38.6429  -20.6323 N   0  0  0  0  0  0  0  0  0  0  0  0
  -18.1718   39.1707  -23.1551 N   0  0  0  0  0  0  0  0  0  0  0  0
  -18.1852   37.9781  -23.9407 C   0  0  0  0  0  0  0  0  0  0  0  0
  -18.7296   36.8075  -23.2186 C   0  0  0  0  0  0  0  0  0  0  0  0
  -17.8854   36.0163  -22.4723 C   0  0  0  0  0  0  0  0  0  0  0  0
  -18.3346   34.9069  -21.7743 C   0  0  0  0  0  0  0  0  0  0  0  0
  -19.6653   34.5480  -21.8012 C   0  0  0  0  0  0  0  0  0  0  0  0
  -20.5239   35.3307  -22.5444 C   0  0  0  0  0  0  0  0  0  0  0  0
  -20.0581   36.4424  -23.2405 C   0  0  0  0  0  0  0  0  0  0  0  0
  -18.0651   40.4807  -23.6976 C   0  0  0  0  0  0  0  0  0  0  0  0
  -17.9537   40.9823  -24.9809 C   0  0  0  0  0  0  0  0  0  0  0  0
  -17.8627   42.3278  -25.2557 C   0  0  0  0  0  0  0  0  0  0  0  0
  -17.8831   43.2213  -24.2066 C   0  0  0  0  0  0  0  0  0  0  0  0
  -17.9929   42.7514  -22.9207 C   0  0  0  0  0  0  0  0  0  0  0  0
  -18.0833   41.3918  -22.6668 C   0  0  0  0  0  0  0  0  0  0  0  0
  1  2  2  0
  2  3  1  0
  3  4  1  0
  4  5  1  0
  5  6  2  0
  5  7  1  0
  7  8  1  0
  8  9  1  0
  9 10  2  0
 10 11  1  0
 11 12  2  0
 12 13  1  0
 13 14  2  0
  7 15  1  0
 15 16  2  0
 16 17  1  0
 17 18  2  0
 18 19  1  0
 19 20  2  0
  6  2  1  0
 14  9  1  0
 20 15  1  0
 20  4  1  0
M  END
$$$$
