
     RDKit          3D

 30 32  0  0  0  0  0  0  0  0999 V2000
  -22.3955   15.3390  -21.2693 C   0  0  0  0  0  0  0  0  0  0  0  0
  -21.8478   14.9346  -22.6000 C   0  0  0  0  0  0  0  0  0  0  0  0
  -20.9879   16.0466  -23.1936 C   0  0  0  0  0  0  0  0  0  0  0  0
  -20.9524   13.7289  -22.4029 C   0  0  0  0  0  0  0  0  0  0  0  0
  -22.9501   14.6543  -23.5659 C   0  0  0  0  0  0  0  0  0  0  0  0
  -24.1037   15.3989  -23.5495 C   0  0  0  0  0  0  0  0  0  0  0  0
  -25.1166   15.1382  -24.4401 C   0  0  0  0  0  0  0  0  0  0  0  0
  -25.0347   14.1273  -25.3897 C   0  0  0  0  0  0  0  0  0  0  0  0
  -26.3396   13.8174  -26.5115 S   0  0  0  0  0  6  0  0  0  0  0  0
  -26.4363   12.3679  -26.8853 O   0  0  0  0  0  0  0  0  0  0  0  0
  -27.6194   14.2294  -25.8010 O   0  0  0  0  0  0  0  0  0  0  0  0
  -26.1989   14.8267  -27.8962 N   0  0  0  0  0  0  0  0  0  0  0  0
  -25.3307   15.9433  -27.6750 C   0  0  0  0  0  0  0  0  0  0  0  0
  -25.9090   17.2301  -28.0683 C   0  0  0  0  0  0  0  0  0  0  0  0
  -25.1774   18.3901  -28.0293 C   0  0  0  0  0  0  0  0  0  0  0  0
  -25.7010   19.5891  -28.3910 C   0  0  0  0  0  0  0  0  0  0  0  0
  -27.0176   19.6575  -28.8158 C   0  0  0  0  0  0  0  0  0  0  0  0
  -27.5622   20.9353  -29.1972 C   0  0  0  0  0  0  0  0  0  0  0  0
  -27.5259   21.9081  -28.3731 O   0  0  0  0  0  0  0  0  0  0  0  0
  -28.1436   21.1494  -30.4730 N   0  0  0  0  0  0  0  0  0  0  0  0
  -28.2890   22.5268  -30.8872 C   0  0  0  0  0  0  0  0  0  0  0  0
  -28.4565   22.8711  -32.2117 C   0  0  0  0  0  0  0  0  0  0  0  0
  -28.5961   24.1935  -32.6096 C   0  0  0  0  0  0  0  0  0  0  0  0
  -28.5643   25.1776  -31.6423 C   0  0  0  0  0  0  0  0  0  0  0  0
  -28.4008   24.8431  -30.3482 N   0  0  0  0  0  0  0  0  0  0  0  0
  -28.2662   23.5583  -29.9716 C   0  0  0  0  0  0  0  0  0  0  0  0
  -27.7739   18.5287  -28.8677 C   0  0  0  0  0  0  0  0  0  0  0  0
  -27.2165   17.3015  -28.4908 C   0  0  0  0  0  0  0  0  0  0  0  0
  -23.8676   13.3920  -25.3885 C   0  0  0  0  0  0  0  0  0  0  0  0
  -22.8445   13.6449  -24.4991 C   0  0  0  0  0  0  0  0  0  0  0  0
  1  2  1  0
  2  3  1  0
  2  4  1  0
  2  5  1  0
  5  6  2  0
  6  7  1  0
  7  8  2  0
  8  9  1  0
  9 10  2  0
  9 11  2  0
  9 12  1  0
 12 13  1  0
 13 14  1  0
 14 15  2  0
 15 16  1  0
 16 17  2  0
 17 18  1  0
 18 19  2  0
 18 20  1  0
 20 21  1  0
 21 22  2  0
 22 23  1  0
 23 24  2  0
 24 25  1  0
 25 26  2  0
 17 27  1  0
 27 28  2  0
  8 29  1  0
 29 30  2  0
 30  5  1  0
 28 14  1  0
 26 21  1  0
M  END
$$$$
