
     RDKit          3D

 32 35  0  0  0  0  0  0  0  0999 V2000
  -18.5727   49.3540  -17.4845 C   0  0  0  0  0  0  0  0  0  0  0  0
  -17.7354   49.0605  -18.5790 O   0  0  0  0  0  0  0  0  0  0  0  0
  -17.7646   47.8066  -19.1585 C   0  0  0  0  0  0  0  0  0  0  0  0
  -18.7062   46.8468  -18.7999 C   0  0  0  0  0  0  0  0  0  0  0  0
  -18.7097   45.6040  -19.3964 C   0  0  0  0  0  0  0  0  0  0  0  0
  -17.7705   45.2912  -20.3667 C   0  0  0  0  0  0  0  0  0  0  0  0
  -17.7384   43.9963  -21.0194 C   0  0  0  0  0  0  0  0  0  0  0  0
  -17.7672   43.8228  -22.3869 C   0  0  0  0  0  0  0  0  0  0  0  0
  -17.7366   42.6306  -22.9488 O   0  0  0  0  0  0  0  0  0  0  0  0
  -17.6764   41.5279  -22.2337 C   0  0  0  0  0  0  0  0  0  0  0  0
  -17.6462   40.2880  -22.8809 C   0  0  0  0  0  0  0  0  0  0  0  0
  -17.5835   39.1117  -22.1719 C   0  0  0  0  0  0  0  0  0  0  0  0
  -17.5494   37.8512  -22.7006 O   0  0  0  0  0  0  0  0  0  0  0  0
  -18.6201   36.9488  -22.8386 C   0  0  2  0  0  0  0  0  0  0  0  0
  -18.8251   36.1789  -21.7191 O   0  0  0  0  0  0  0  0  0  0  0  0
  -18.6040   34.8480  -21.7949 C   0  0  2  0  0  0  0  0  0  0  0  0
  -17.1376   34.4896  -21.5923 C   0  0  0  0  0  0  0  0  0  0  0  0
  -16.7992   34.5295  -20.2412 O   0  0  0  0  0  0  0  0  0  0  0  0
  -19.1880   34.1558  -22.9906 C   0  0  1  0  0  0  0  0  0  0  0  0
  -20.2442   33.3061  -22.6776 O   0  0  0  0  0  0  0  0  0  0  0  0
  -19.6193   35.1259  -24.0670 C   0  0  2  0  0  0  0  0  0  0  0  0
  -19.8593   34.5216  -25.2724 O   0  0  0  0  0  0  0  0  0  0  0  0
  -18.5209   36.1665  -24.1341 C   0  0  1  0  0  0  0  0  0  0  0  0
  -18.7914   37.0931  -25.1607 O   0  0  0  0  0  0  0  0  0  0  0  0
  -17.5520   39.2246  -20.7905 C   0  0  0  0  0  0  0  0  0  0  0  0
  -17.5818   40.4482  -20.1503 C   0  0  0  0  0  0  0  0  0  0  0  0
  -17.6441   41.6051  -20.8683 C   0  0  0  0  0  0  0  0  0  0  0  0
  -17.6749   42.8397  -20.2551 C   0  0  0  0  0  0  0  0  0  0  0  0
  -17.6450   42.9006  -19.0089 O   0  0  0  0  0  0  0  0  0  0  0  0
  -16.8459   46.2682  -20.7021 C   0  0  0  0  0  0  0  0  0  0  0  0
  -16.8223   47.5062  -20.1255 C   0  0  0  0  0  0  0  0  0  0  0  0
  -15.8886   48.4615  -20.4793 O   0  0  0  0  0  0  0  0  0  0  0  0
  1  2  1  0
  2  3  1  0
  3  4  2  0
  4  5  1  0
  5  6  2  0
  6  7  1  0
  7  8  2  0
  8  9  1  0
  9 10  1  0
 10 11  2  0
 11 12  1  0
 12 13  1  0
 14 13  1  1
 14 15  1  0
 15 16  1  0
 16 17  1  6
 17 18  1  0
 16 19  1  0
 19 20  1  1
 19 21  1  0
 21 22  1  6
 21 23  1  0
 23 24  1  6
 12 25  2  0
 25 26  1  0
 26 27  2  0
 27 28  1  0
 28 29  2  0
  6 30  1  0
 30 31  2  0
 31 32  1  0
 31  3  1  0
 28  7  1  0
 27 10  1  0
 23 14  1  0
M  END
$$$$
