
     RDKit          3D

 23 26  0  0  0  0  0  0  0  0999 V2000
  -22.4756   16.4933  -34.7542 C   0  0  0  0  0  0  0  0  0  0  0  0
  -21.1293   16.1811  -35.1759 N   0  0  0  0  0  0  0  0  0  0  0  0
  -20.3157   17.3502  -34.9524 C   0  0  0  0  0  0  0  0  0  0  0  0
  -19.8152   17.2592  -33.5026 C   0  0  0  0  0  0  0  0  0  0  0  0
  -18.8140   16.2306  -33.5412 N   0  0  0  0  0  0  0  0  0  0  0  0
  -17.6118   16.3919  -32.8406 C   0  0  0  0  0  0  0  0  0  0  0  0
  -16.9218   15.3081  -32.5907 N   0  0  0  0  0  0  0  0  0  0  0  0
  -15.6910   15.0832  -31.9241 C   0  0  0  0  0  0  0  0  0  0  0  0
  -15.4773   13.7195  -31.7456 C   0  0  0  0  0  0  0  0  0  0  0  0
  -14.3354   13.2808  -31.1172 C   0  0  0  0  0  0  0  0  0  0  0  0
  -14.0332   11.5525  -30.8742 Cl  0  0  0  0  0  0  0  0  0  0  0  0
  -13.4324   14.2271  -30.6819 C   0  0  0  0  0  0  0  0  0  0  0  0
  -13.6239   15.5818  -30.8482 C   0  0  0  0  0  0  0  0  0  0  0  0
  -14.7727   16.0118  -31.4798 C   0  0  0  0  0  0  0  0  0  0  0  0
  -14.8757   17.4147  -31.6005 N   0  0  0  0  0  0  0  0  0  0  0  0
  -16.0170   18.1977  -31.9005 C   0  0  0  0  0  0  0  0  0  0  0  0
  -15.8427   19.5299  -31.5934 C   0  0  0  0  0  0  0  0  0  0  0  0
  -16.8789   20.4046  -31.8344 C   0  0  0  0  0  0  0  0  0  0  0  0
  -18.0604   19.9401  -32.3726 C   0  0  0  0  0  0  0  0  0  0  0  0
  -18.2528   18.6115  -32.6861 C   0  0  0  0  0  0  0  0  0  0  0  0
  -17.2234   17.7337  -32.4483 C   0  0  0  0  0  0  0  0  0  0  0  0
  -19.0916   15.0579  -34.3182 C   0  0  0  0  0  0  0  0  0  0  0  0
  -20.5861   15.0111  -34.5559 C   0  0  0  0  0  0  0  0  0  0  0  0
  1  2  1  0
  2  3  1  0
  3  4  1  0
  4  5  1  0
  5  6  1  0
  6  7  2  0
  7  8  1  0
  8  9  2  0
  9 10  1  0
 10 11  1  0
 10 12  2  0
 12 13  1  0
 13 14  2  0
 14 15  1  0
 15 16  1  0
 16 17  2  0
 17 18  1  0
 18 19  2  0
 19 20  1  0
 20 21  2  0
  5 22  1  0
 22 23  1  0
 23  2  1  0
 21  6  1  0
 14  8  1  0
 21 16  1  0
M  END
$$$$
