
     RDKit          3D

 28 31  0  0  0  0  0  0  0  0999 V2000
  -34.0965   20.5529  -29.1032 C   0  0  0  0  0  0  0  0  0  0  0  0
  -33.3981   20.7518  -27.9020 O   0  0  0  0  0  0  0  0  0  0  0  0
  -32.0408   20.4550  -27.8692 C   0  0  0  0  0  0  0  0  0  0  0  0
  -31.5314   19.6080  -26.8948 C   0  0  0  0  0  0  0  0  0  0  0  0
  -30.1861   19.3045  -26.8501 C   0  0  0  0  0  0  0  0  0  0  0  0
  -29.2975   19.8234  -27.7614 C   0  0  0  0  0  0  0  0  0  0  0  0
  -27.9073   19.5454  -27.7620 N   0  0  0  0  0  0  0  0  0  0  0  0
  -27.3741   18.2402  -27.9096 C   0  0  0  0  0  0  0  0  0  0  0  0
  -28.0869   17.2444  -27.6234 O   0  0  0  0  0  0  0  0  0  0  0  0
  -25.9672   18.0220  -28.4037 C   0  0  0  0  0  0  0  0  0  0  0  0
  -25.4010   16.8633  -27.7560 N   0  0  0  0  0  0  0  0  0  0  0  0
  -24.5641   16.7730  -26.6178 C   0  0  0  0  0  0  0  0  0  0  0  0
  -24.0952   17.8548  -25.8540 C   0  0  0  0  0  0  0  0  0  0  0  0
  -23.2803   17.6415  -24.7597 C   0  0  0  0  0  0  0  0  0  0  0  0
  -22.9122   16.3681  -24.3964 C   0  0  0  0  0  0  0  0  0  0  0  0
  -23.3698   15.2775  -25.1458 C   0  0  0  0  0  0  0  0  0  0  0  0
  -23.0331   13.9947  -24.8267 C   0  0  0  0  0  0  0  0  0  0  0  0
  -23.4924   12.9363  -25.5746 C   0  0  0  0  0  0  0  0  0  0  0  0
  -24.3009   13.2193  -26.6524 C   0  0  0  0  0  0  0  0  0  0  0  0
  -24.6544   14.4982  -26.9951 C   0  0  0  0  0  0  0  0  0  0  0  0
  -24.1922   15.5432  -26.2445 C   0  0  0  0  0  0  0  0  0  0  0  0
  -25.6283   15.2208  -28.2509 S   0  0  0  0  0  6  0  0  0  0  0  0
  -27.0654   14.8101  -28.1483 O   0  0  0  0  0  0  0  0  0  0  0  0
  -25.0634   15.0041  -29.6097 O   0  0  0  0  0  0  0  0  0  0  0  0
  -29.8004   20.6640  -28.7293 C   0  0  0  0  0  0  0  0  0  0  0  0
  -28.9310   21.2066  -29.6665 O   0  0  0  0  0  0  0  0  0  0  0  0
  -29.3135   22.3446  -30.4204 C   0  0  0  0  0  0  0  0  0  0  0  0
  -31.1457   20.9727  -28.7807 C   0  0  0  0  0  0  0  0  0  0  0  0
  1  2  1  0
  2  3  1  0
  3  4  2  0
  4  5  1  0
  5  6  2  0
  6  7  1  0
  7  8  1  0
  8  9  2  0
  8 10  1  0
 10 11  1  0
 11 12  1  0
 12 13  2  0
 13 14  1  0
 14 15  2  0
 15 16  1  0
 16 17  2  0
 17 18  1  0
 18 19  2  0
 19 20  1  0
 20 21  2  0
 20 22  1  0
 22 23  2  0
 22 24  2  0
  6 25  1  0
 25 26  1  0
 26 27  1  0
 25 28  2  0
 28  3  1  0
 22 11  1  0
 21 12  1  0
 21 16  1  0
M  END
$$$$
