
     RDKit          3D

 29 31  0  0  0  0  0  0  0  0999 V2000
  -20.8858   18.8393  -39.0224 C   0  0  0  0  0  0  0  0  0  0  0  0
  -21.5476   20.1597  -38.7776 C   0  0  0  0  0  0  0  0  0  0  0  0
  -21.9869   20.4748  -37.5220 C   0  0  0  0  0  0  0  0  0  0  0  0
  -22.5773   21.6787  -37.3493 C   0  0  0  0  0  0  0  0  0  0  0  0
  -23.0538   22.0844  -36.1118 O   0  0  0  0  0  0  0  0  0  0  0  0
  -22.7489   22.6009  -38.4090 C   0  0  0  0  0  0  0  0  0  0  0  0
  -23.4040   23.8393  -38.0469 C   0  0  0  0  0  0  0  0  0  0  0  0
  -24.7855   23.9950  -38.0847 C   0  0  0  0  0  0  0  0  0  0  0  0
  -25.4085   25.1434  -37.6648 C   0  0  0  0  0  0  0  0  0  0  0  0
  -24.6426   26.1853  -37.1865 C   0  0  0  0  0  0  0  0  0  0  0  0
  -25.3051   27.4245  -36.7338 C   0  0  1  0  0  0  0  0  0  0  0  0
  -26.0349   28.1032  -37.8833 C   0  0  0  0  0  0  0  0  0  0  0  0
  -26.2649   27.2073  -35.6040 C   0  0  0  0  0  0  0  0  0  0  0  0
  -26.8511   28.4742  -35.2430 N   0  0  0  0  0  0  0  0  0  0  0  0
  -25.9421   29.3996  -34.6439 C   0  0  0  0  0  0  0  0  0  0  0  0
  -28.1222   28.3627  -34.5870 C   0  0  0  0  0  0  0  0  0  0  0  0
  -23.2706   26.0670  -37.1342 C   0  0  0  0  0  0  0  0  0  0  0  0
  -22.6583   24.8950  -37.5645 C   0  0  0  0  0  0  0  0  0  0  0  0
  -22.2950   22.2519  -39.6591 C   0  0  0  0  0  0  0  0  0  0  0  0
  -21.6828   21.0212  -39.8739 C   0  0  0  0  0  0  0  0  0  0  0  0
  -21.2022   20.5775  -41.0461 N   0  0  0  0  0  0  0  0  0  0  0  0
  -21.3162   21.3754  -42.0969 C   0  0  0  0  0  0  0  0  0  0  0  0
  -20.8926   21.0349  -43.2281 O   0  0  0  0  0  0  0  0  0  0  0  0
  -21.9224   22.6331  -41.9565 C   0  0  0  0  0  0  0  0  0  0  0  0
  -22.1824   23.8458  -43.1694 S   0  0  0  0  0  0  0  0  0  0  0  0
  -22.9792   25.0236  -42.0652 C   0  0  0  0  0  0  0  0  0  0  0  0
  -22.9664   24.3347  -40.8112 C   0  0  0  0  0  0  0  0  0  0  0  0
  -22.4292   23.1278  -40.7727 C   0  0  0  0  0  0  0  0  0  0  0  0
  -24.2547   25.1225  -37.6340 Cl  0  0  0  0  0  0  0  0  0  0  0  0
  1  2  1  0
  2  3  2  0
  3  4  1  0
  4  5  1  0
  4  6  2  0
  6  7  1  0
  7  8  2  0
  8  9  1  0
  9 10  2  0
 10 11  1  0
 11 12  1  6
 11 13  1  0
 13 14  1  0
 14 15  1  0
 14 16  1  0
 10 17  1  0
 17 18  2  0
  6 19  1  0
 19 20  2  0
 20 21  1  0
 21 22  1  0
 22 23  2  0
 22 24  1  0
 24 25  1  0
 25 26  1  0
 26 27  2  0
 27 28  1  0
 20  2  1  0
 28 24  2  0
 18  7  1  0
 28 19  1  0
M  END
$$$$
