
     RDKit          3D

 23 25  0  0  0  0  0  0  0  0999 V2000
  -14.3689   18.4350  -41.1730 C   0  0  0  0  0  0  0  0  0  0  0  0
  -14.4680   19.5061  -42.0563 O   0  0  0  0  0  0  0  0  0  0  0  0
  -15.5596   20.3177  -42.2443 C   0  0  0  0  0  0  0  0  0  0  0  0
  -15.8580   21.3013  -41.3170 C   0  0  0  0  0  0  0  0  0  0  0  0
  -16.9473   22.1204  -41.4910 C   0  0  0  0  0  0  0  0  0  0  0  0
  -17.2504   23.1246  -40.5448 O   0  0  0  0  0  0  0  0  0  0  0  0
  -18.0417   22.7822  -39.4272 C   0  0  0  0  0  0  0  0  0  0  0  0
  -17.7496   21.9588  -42.6000 C   0  0  0  0  0  0  0  0  0  0  0  0
  -18.9153   22.7554  -42.8482 C   0  0  0  0  0  0  0  0  0  0  0  0
  -20.1217   22.2572  -42.9349 C   0  0  0  0  0  0  0  0  0  0  0  0
  -21.2110   22.7949  -43.8050 C   0  0  0  0  0  0  0  0  0  0  0  0
  -21.0671   23.7958  -44.5702 O   0  0  0  0  0  0  0  0  0  0  0  0
  -22.3644   22.0067  -43.6115 N   0  0  0  0  0  0  0  0  0  0  0  0
  -22.0466   20.9984  -42.6572 C   0  0  0  0  0  0  0  0  0  0  0  0
  -22.8363   20.0050  -42.1398 C   0  0  0  0  0  0  0  0  0  0  0  0
  -22.3252   19.1468  -41.2178 C   0  0  0  0  0  0  0  0  0  0  0  0
  -20.9971   19.2849  -40.8041 C   0  0  0  0  0  0  0  0  0  0  0  0
  -20.1920   20.2738  -41.3119 C   0  0  0  0  0  0  0  0  0  0  0  0
  -20.7035   21.1373  -42.2411 C   0  0  0  0  0  0  0  0  0  0  0  0
  -17.4374   20.9714  -43.5174 C   0  0  0  0  0  0  0  0  0  0  0  0
  -18.2521   20.7945  -44.6581 O   0  0  0  0  0  0  0  0  0  0  0  0
  -17.8530   21.3592  -45.8826 C   0  0  0  0  0  0  0  0  0  0  0  0
  -16.3482   20.1417  -43.3584 C   0  0  0  0  0  0  0  0  0  0  0  0
  1  2  1  0
  2  3  1  0
  3  4  2  0
  4  5  1  0
  5  6  1  0
  6  7  1  0
  5  8  2  0
  8  9  1  0
  9 10  2  0
 10 11  1  0
 11 12  2  0
 11 13  1  0
 13 14  1  0
 14 15  2  0
 15 16  1  0
 16 17  2  0
 17 18  1  0
 18 19  2  0
  8 20  1  0
 20 21  1  0
 21 22  1  0
 20 23  2  0
 23  3  1  0
 19 10  1  0
 19 14  1  0
M  END
$$$$
