
     RDKit          3D

 15 14  0  0  0  0  0  0  0  0999 V2000
  -21.0180   34.8434  -22.6939 N   0  0  0  0  0  0  0  0  0  0  0  0
  -19.9742   34.1356  -22.4701 C   0  0  0  0  0  0  0  0  0  0  0  0
  -18.6640   34.6481  -22.6200 N   0  0  0  0  0  0  0  0  0  0  0  0
  -18.4763   35.9881  -23.1153 C   0  0  0  0  0  0  0  0  0  0  0  0
  -18.3498   36.9883  -21.9919 C   0  0  0  0  0  0  0  0  0  0  0  0
  -18.1373   38.3751  -22.5515 C   0  0  0  0  0  0  0  0  0  0  0  0
  -18.1741   39.4195  -21.4355 C   0  0  2  0  0  0  0  0  0  0  0  0
  -19.3429   40.2602  -21.6198 N   0  0  0  0  0  0  0  0  0  0  0  0
  -16.9487   40.2561  -21.5145 C   0  0  0  0  0  0  0  0  0  0  0  0
  -15.9327   39.9862  -20.8436 O   0  0  0  0  0  0  0  0  0  0  0  0
  -16.8982   41.3684  -22.3414 O   0  0  0  0  0  0  0  0  0  0  0  0
  -20.1866   32.7789  -22.0542 N   0  0  0  0  0  0  0  0  0  0  0  0
  -19.1178   31.8868  -22.0925 N   0  0  0  0  0  4  0  0  0  0  0  0
  -19.2642   30.6712  -21.8880 O   0  0  0  0  0  0  0  0  0  0  0  0
  -17.8718   32.3591  -22.3625 O   0  0  0  0  0  1  0  0  0  0  0  0
  1  2  2  0
  2  3  1  0
  3  4  1  0
  4  5  1  0
  5  6  1  0
  6  7  1  0
  7  8  1  6
  7  9  1  0
  9 10  2  0
  9 11  1  0
  2 12  1  0
 12 13  1  0
 13 14  2  0
 13 15  1  0
M  CHG  2  13   1  15  -1
M  END
$$$$
