
     RDKit          3D

 22 22  0  0  0  0  0  0  0  0999 V2000
    7.8299   21.4652  -17.0751 C   0  0  0  0  0  0  0  0  0  0  0  0
    6.4802   20.9232  -17.4575 C   0  0  0  0  0  0  0  0  0  0  0  0
    5.4133   21.3716  -16.5860 N   0  0  0  0  0  0  0  0  0  0  0  0
    5.6401   20.7559  -15.3002 C   0  0  0  0  0  0  0  0  0  0  0  0
    4.6215   21.1153  -14.2602 C   0  0  0  0  0  0  0  0  0  0  0  0
    4.1477   21.0045  -17.1684 C   0  0  0  0  0  0  0  0  0  0  0  0
    3.9231   19.5174  -17.1891 C   0  0  0  0  0  0  0  0  0  0  0  0
    2.6335   19.3145  -17.7904 O   0  0  0  0  0  0  0  0  0  0  0  0
    2.1217   18.0482  -17.9747 C   0  0  0  0  0  0  0  0  0  0  0  0
    2.8496   17.0823  -17.5887 O   0  0  0  0  0  0  0  0  0  0  0  0
    0.7925   17.8442  -18.5914 C   0  0  0  0  0  0  0  0  0  0  0  0
    0.7199   18.4256  -19.9321 C   0  0  0  0  0  0  0  0  0  0  0  0
   -0.3549   19.1753  -20.3818 C   0  0  0  0  0  0  0  0  0  0  0  0
   -0.3909   19.7145  -21.6567 C   0  0  0  0  0  0  0  0  0  0  0  0
    0.6491   19.5198  -22.5222 C   0  0  0  0  0  0  0  0  0  0  0  0
    1.7328   18.7788  -22.1045 C   0  0  0  0  0  0  0  0  0  0  0  0
    1.7533   18.2452  -20.8225 C   0  0  0  0  0  0  0  0  0  0  0  0
   -0.2721   18.3611  -17.6477 C   0  0  0  0  0  0  0  0  0  0  0  0
   -0.1071   17.3942  -16.4687 C   0  0  0  0  0  0  0  0  0  0  0  0
    0.1205   16.0460  -17.1441 C   0  0  0  0  0  0  0  0  0  0  0  0
    0.4658   16.3584  -18.5885 C   0  0  0  0  0  0  0  0  0  0  0  0
    3.4805   19.4547  -17.4591 I   0  0  0  0  0  0  0  0  0  0  0  0
  1  2  1  0
  2  3  1  0
  3  4  1  0
  4  5  1  0
  3  6  1  0
  6  7  1  0
  7  8  1  0
  8  9  1  0
  9 10  2  0
  9 11  1  0
 11 12  1  0
 12 13  2  0
 13 14  1  0
 14 15  2  0
 15 16  1  0
 16 17  2  0
 11 18  1  0
 18 19  1  0
 19 20  1  0
 20 21  1  0
 21 11  1  0
 17 12  1  0
M  END
$$$$
