
     RDKit          3D

 28 31  0  0  0  0  0  0  0  0999 V2000
  -19.1188   30.6121  -22.7254 O   0  0  0  0  0  0  0  0  0  0  0  0
  -19.8606   31.5989  -23.0396 C   0  0  0  0  0  0  0  0  0  0  0  0
  -21.2454   31.3188  -23.1554 N   0  0  0  0  0  0  0  0  0  0  0  0
  -21.6967   30.0235  -23.5461 C   0  0  0  0  0  0  0  0  0  0  0  0
  -20.9263   28.9028  -23.3307 C   0  0  0  0  0  0  0  0  0  0  0  0
  -21.3494   27.6771  -23.6986 N   0  0  0  0  0  0  0  0  0  0  0  0
  -22.5359   27.4654  -24.2931 C   0  0  0  0  0  0  0  0  0  0  0  0
  -23.3443   28.5556  -24.5307 C   0  0  0  0  0  0  0  0  0  0  0  0
  -22.9174   29.8332  -24.1539 C   0  0  0  0  0  0  0  0  0  0  0  0
  -23.9129   31.2430  -24.4375 Cl  0  0  0  0  0  0  0  0  0  0  0  0
  -19.3325   32.8877  -23.2578 N   0  0  0  0  0  0  0  0  0  0  0  0
  -20.0948   34.1000  -23.4102 C   0  0  0  0  0  0  0  0  0  0  0  0
  -19.6263   35.1249  -22.3975 C   0  0  0  0  0  0  0  0  0  0  0  0
  -18.2087   35.2738  -22.3675 N   0  0  0  0  0  0  0  0  0  0  0  0
  -17.8178   36.1077  -21.2696 C   0  0  0  0  0  0  0  0  0  0  0  0
  -17.7251   37.5334  -21.5902 C   0  0  0  0  0  0  0  0  0  0  0  0
  -18.1563   38.0827  -22.7757 C   0  0  0  0  0  0  0  0  0  0  0  0
  -18.0388   39.4338  -23.0117 C   0  0  0  0  0  0  0  0  0  0  0  0
  -17.4803   40.2893  -22.0599 C   0  0  0  0  0  0  0  0  0  0  0  0
  -17.0490   39.7562  -20.8803 C   0  0  0  0  0  0  0  0  0  0  0  0
  -17.1725   38.3840  -20.6500 C   0  0  0  0  0  0  0  0  0  0  0  0
  -16.5443   40.8193  -20.1282 O   0  0  0  0  0  0  0  0  0  0  0  0
  -16.3714   41.9514  -20.9840 C   0  0  0  0  0  0  0  0  0  0  0  0
  -16.6894   43.1204  -20.3394 F   0  0  0  0  0  0  0  0  0  0  0  0
  -15.0611   42.0545  -21.4232 F   0  0  0  0  0  0  0  0  0  0  0  0
  -17.2525   41.6628  -22.0534 O   0  0  0  0  0  0  0  0  0  0  0  0
  -17.4924   34.0275  -22.2681 C   0  0  0  0  0  0  0  0  0  0  0  0
  -17.8712   33.0497  -23.3443 C   0  0  0  0  0  0  0  0  0  0  0  0
  1  2  2  0
  2  3  1  0
  3  4  1  0
  4  5  2  0
  5  6  1  0
  6  7  2  0
  7  8  1  0
  8  9  2  0
  9 10  1  0
  2 11  1  0
 11 12  1  0
 12 13  1  0
 13 14  1  0
 14 15  1  0
 15 16  1  0
 16 17  2  0
 17 18  1  0
 18 19  2  0
 19 20  1  0
 20 21  2  0
 20 22  1  0
 22 23  1  0
 23 24  1  0
 23 25  1  0
 23 26  1  0
 14 27  1  0
 27 28  1  0
  9  4  1  0
 28 11  1  0
 21 16  1  0
 26 19  1  0
M  END
$$$$
