
     RDKit          3D

 24 28  0  0  0  0  0  0  0  0999 V2000
  -21.2365    0.1131  -34.8697 O   0  0  0  0  0  0  0  0  0  0  0  0
  -20.0585    0.0386  -34.4084 C   0  0  0  0  0  0  0  0  0  0  0  0
  -19.1112   -0.8699  -34.9211 N   0  0  0  0  0  0  0  0  0  0  0  0
  -17.8303   -0.9082  -34.3750 N   0  0  0  0  0  0  0  0  0  0  0  0
  -17.4190   -0.0532  -33.2965 C   0  0  0  0  0  0  0  0  0  0  0  0
  -16.1702   -0.1267  -32.8017 N   0  0  0  0  0  0  0  0  0  0  0  0
  -15.8062    0.6812  -31.7937 C   0  0  0  0  0  0  0  0  0  0  0  0
  -14.4612    0.6899  -31.1692 C   0  0  0  0  0  0  0  0  0  0  0  0
  -13.5296    1.2780  -32.0880 N   0  0  0  0  0  0  0  0  0  0  0  0
  -12.6607    0.3014  -32.6859 C   0  0  0  0  0  0  0  0  0  0  0  0
  -11.3174    0.9164  -32.7750 C   0  0  0  0  0  0  0  0  0  0  0  0
  -10.1859    0.4715  -33.3882 C   0  0  0  0  0  0  0  0  0  0  0  0
   -9.0260    1.2393  -33.3329 C   0  0  0  0  0  0  0  0  0  0  0  0
   -9.0259    2.4354  -32.6647 C   0  0  0  0  0  0  0  0  0  0  0  0
  -10.2074    2.8570  -32.0485 C   0  0  0  0  0  0  0  0  0  0  0  0
  -11.3475    2.1195  -32.0932 C   0  0  0  0  0  0  0  0  0  0  0  0
  -12.7297    2.3215  -31.5349 C   0  0  0  0  0  0  0  0  0  0  0  0
  -16.7211    1.5400  -31.3179 N   0  0  0  0  0  0  0  0  0  0  0  0
  -17.9711    1.6492  -31.7761 C   0  0  0  0  0  0  0  0  0  0  0  0
  -18.8965    2.5337  -31.2784 C   0  0  0  0  0  0  0  0  0  0  0  0
  -20.1823    2.6235  -31.7730 C   0  0  0  0  0  0  0  0  0  0  0  0
  -20.5750    1.8016  -32.8087 C   0  0  0  0  0  0  0  0  0  0  0  0
  -19.6511    0.9072  -33.3175 C   0  0  0  0  0  0  0  0  0  0  0  0
  -18.3656    0.8264  -32.8134 C   0  0  0  0  0  0  0  0  0  0  0  0
  1  2  2  0
  2  3  1  0
  3  4  1  0
  4  5  1  0
  5  6  1  0
  6  7  2  0
  7  8  1  0
  8  9  1  0
  9 10  1  0
 10 11  1  0
 11 12  2  0
 12 13  1  0
 13 14  2  0
 14 15  1  0
 15 16  2  0
 16 17  1  0
  7 18  1  0
 18 19  2  0
 19 20  1  0
 20 21  2  0
 21 22  1  0
 22 23  2  0
 23 24  1  0
 23  2  1  0
 24  5  2  0
 17  9  1  0
 24 19  1  0
 16 11  1  0
M  END
$$$$
