
     RDKit          3D

 32 34  0  0  0  0  0  0  0  0999 V2000
  -24.3507   14.0988  -34.3558 C   0  0  0  0  0  0  0  0  0  0  0  0
  -23.3799   14.7659  -35.1081 O   0  0  0  0  0  0  0  0  0  0  0  0
  -23.6876   15.5027  -36.2248 C   0  0  0  0  0  0  0  0  0  0  0  0
  -24.7933   15.1519  -36.9758 C   0  0  0  0  0  0  0  0  0  0  0  0
  -25.1075   15.8743  -38.0835 C   0  0  0  0  0  0  0  0  0  0  0  0
  -24.3126   16.9635  -38.4539 C   0  0  0  0  0  0  0  0  0  0  0  0
  -23.2177   17.2833  -37.6801 C   0  0  0  0  0  0  0  0  0  0  0  0
  -22.4330   18.3653  -38.0531 O   0  0  0  0  0  0  0  0  0  0  0  0
  -22.9289   19.3885  -38.8949 C   0  0  0  0  0  0  0  0  0  0  0  0
  -22.8761   16.5680  -36.5521 C   0  0  0  0  0  0  0  0  0  0  0  0
  -21.7263   16.8737  -35.7066 C   0  0  0  0  0  0  0  0  0  0  0  0
  -21.7263   17.9495  -34.8366 C   0  0  0  0  0  0  0  0  0  0  0  0
  -20.6435   18.2454  -34.0338 C   0  0  0  0  0  0  0  0  0  0  0  0
  -19.4960   17.4784  -34.0571 C   0  0  0  0  0  0  0  0  0  0  0  0
  -18.3394   17.8071  -33.1891 C   0  0  0  0  0  0  0  0  0  0  0  0
  -17.3419   18.6970  -33.8966 C   0  0  2  0  0  0  0  0  0  0  0  0
  -16.4543   17.8612  -34.7388 N   0  0  0  0  0  0  0  0  0  0  0  0
  -15.4713   18.4391  -35.5383 C   0  0  0  0  0  0  0  0  0  0  0  0
  -15.6126   19.7009  -35.7487 O   0  0  0  0  0  0  0  0  0  0  0  0
  -14.3539   17.7403  -36.1244 C   0  0  0  0  0  0  0  0  0  0  0  0
  -14.3414   16.4592  -36.6081 C   0  0  0  0  0  0  0  0  0  0  0  0
  -15.7502   15.4430  -36.4647 Cl  0  0  0  0  0  0  0  0  0  0  0  0
  -13.1823   15.9314  -37.1932 C   0  0  0  0  0  0  0  0  0  0  0  0
  -12.0135   16.6399  -37.3175 C   0  0  0  0  0  0  0  0  0  0  0  0
  -12.0173   17.9254  -36.8335 C   0  0  0  0  0  0  0  0  0  0  0  0
  -13.1464   18.4519  -36.2596 C   0  0  0  0  0  0  0  0  0  0  0  0
  -13.1209   20.1102  -35.6490 Cl  0  0  0  0  0  0  0  0  0  0  0  0
  -16.4954   19.4703  -32.9537 C   0  0  0  0  0  0  0  0  0  0  0  0
  -16.4231   20.7302  -33.0137 O   0  0  0  0  0  0  0  0  0  0  0  0
  -15.7561   18.8322  -31.9754 O   0  0  0  0  0  0  0  0  0  0  0  0
  -19.4929   16.4034  -34.9249 C   0  0  0  0  0  0  0  0  0  0  0  0
  -20.5755   16.1070  -35.7279 C   0  0  0  0  0  0  0  0  0  0  0  0
  1  2  1  0
  2  3  1  0
  3  4  2  0
  4  5  1  0
  5  6  2  0
  6  7  1  0
  7  8  1  0
  8  9  1  0
  7 10  2  0
 10 11  1  0
 11 12  2  0
 12 13  1  0
 13 14  2  0
 14 15  1  0
 16 15  1  1
 16 17  1  0
 17 18  1  0
 18 19  2  0
 18 20  1  0
 20 21  2  0
 21 22  1  0
 21 23  1  0
 23 24  2  0
 24 25  1  0
 25 26  2  0
 26 27  1  0
 16 28  1  0
 28 29  2  0
 28 30  1  0
 14 31  1  0
 31 32  2  0
 10  3  1  0
 32 11  1  0
 26 20  1  0
M  END
$$$$
