
     RDKit          3D

 35 38  0  0  0  0  0  0  0  0999 V2000
  -26.3894   17.6270  -27.0167 C   0  0  0  0  0  0  0  0  0  0  0  0
  -25.5282   17.9491  -28.2050 C   0  0  0  0  0  0  0  0  0  0  0  0
  -25.7739   16.9292  -29.3202 C   0  0  0  0  0  0  0  0  0  0  0  0
  -25.8990   19.2859  -28.7225 C   0  0  0  0  0  0  0  0  0  0  0  0
  -27.0745   19.7101  -28.4457 O   0  0  0  0  0  0  0  0  0  0  0  0
  -24.9931   20.1021  -29.5104 C   0  0  0  0  0  0  0  0  0  0  0  0
  -23.7393   19.7675  -29.9490 C   0  0  0  0  0  0  0  0  0  0  0  0
  -23.2021   20.7820  -30.6499 N   0  0  0  0  0  0  0  0  0  0  0  0
  -21.8996   20.8246  -31.2789 C   0  0  0  0  0  0  0  0  0  0  0  0
  -22.0692   20.4090  -32.6899 C   0  0  0  0  0  0  0  0  0  0  0  0
  -23.1680   20.1529  -33.1258 O   0  0  0  0  0  0  0  0  0  0  0  0
  -20.8772   20.3111  -33.5600 C   0  0  0  0  0  0  0  0  0  0  0  0
  -20.8627   19.1391  -34.3179 O   0  0  0  0  0  0  0  0  0  0  0  0
  -21.7935   18.1163  -34.2637 C   0  0  0  0  0  0  0  0  0  0  0  0
  -21.7672   17.1236  -33.3123 C   0  0  0  0  0  0  0  0  0  0  0  0
  -22.7064   16.1016  -33.2716 C   0  0  0  0  0  0  0  0  0  0  0  0
  -23.7222   16.0406  -34.2006 C   0  0  0  0  0  0  0  0  0  0  0  0
  -24.6544   15.0209  -34.1558 O   0  0  0  0  0  0  0  0  0  0  0  0
  -24.3356   13.6874  -34.1647 C   0  0  0  0  0  0  0  0  0  0  0  0
  -24.9094   12.8152  -33.2408 C   0  0  0  0  0  0  0  0  0  0  0  0
  -24.5649   11.4702  -33.2766 C   0  0  0  0  0  0  0  0  0  0  0  0
  -23.6724   10.9801  -34.2009 C   0  0  0  0  0  0  0  0  0  0  0  0
  -23.1039   11.8387  -35.1150 C   0  0  0  0  0  0  0  0  0  0  0  0
  -23.4487   13.1958  -35.0820 C   0  0  0  0  0  0  0  0  0  0  0  0
  -23.7619   17.0342  -35.1648 C   0  0  0  0  0  0  0  0  0  0  0  0
  -22.8281   18.0432  -35.1992 C   0  0  0  0  0  0  0  0  0  0  0  0
  -24.1066   21.8000  -30.6774 C   0  0  0  0  0  0  0  0  0  0  0  0
  -24.0881   23.0572  -31.2428 C   0  0  0  0  0  0  0  0  0  0  0  0
  -25.1477   23.9334  -31.1349 C   0  0  0  0  0  0  0  0  0  0  0  0
  -26.2545   23.4910  -30.4209 C   0  0  0  0  0  0  0  0  0  0  0  0
  -27.4097   24.3795  -30.2739 C   0  0  0  0  0  0  0  0  0  0  0  0
  -27.9024   24.6086  -29.1416 O   0  0  0  0  0  0  0  0  0  0  0  0
  -27.9966   24.9946  -31.3681 O   0  0  0  0  0  0  0  0  0  0  0  0
  -26.2967   22.2433  -29.8486 C   0  0  0  0  0  0  0  0  0  0  0  0
  -25.2349   21.3756  -29.9613 C   0  0  0  0  0  0  0  0  0  0  0  0
  1  2  1  0
  2  3  1  0
  2  4  1  0
  4  5  2  0
  4  6  1  0
  6  7  2  0
  7  8  1  0
  8  9  1  0
  9 10  1  0
 10 11  2  0
 10 12  1  0
 12 13  1  0
 13 14  1  0
 14 15  2  0
 15 16  1  0
 16 17  2  0
 17 18  1  0
 18 19  1  0
 19 20  2  0
 20 21  1  0
 21 22  2  0
 22 23  1  0
 23 24  2  0
 17 25  1  0
 25 26  2  0
  8 27  1  0
 27 28  2  0
 28 29  1  0
 29 30  2  0
 30 31  1  0
 31 32  2  0
 31 33  1  0
 30 34  1  0
 34 35  2  0
 35  6  1  0
 26 14  1  0
 35 27  1  0
 24 19  1  0
M  END
$$$$
