
     RDKit          3D

 44 48  0  0  0  0  0  0  0  0999 V2000
  -21.9370   18.5408  -35.7838 C   0  0  0  0  0  0  0  0  0  0  0  0
  -20.8953   19.4807  -35.4543 N   0  0  0  0  0  0  0  0  0  0  0  0
  -19.8583   19.1259  -34.5280 C   0  0  0  0  0  0  0  0  0  0  0  0
  -18.4727   19.1689  -35.0723 C   0  0  0  0  0  0  0  0  0  0  0  0
  -17.4220   19.0329  -34.0826 N   0  0  0  0  0  0  0  0  0  0  0  0
  -18.1290   18.7711  -32.8193 C   0  0  0  0  0  0  0  0  0  0  0  0
  -18.3600   17.2833  -32.6817 C   0  0  0  0  0  0  0  0  0  0  0  0
  -17.0402   16.6924  -32.2627 C   0  0  0  0  0  0  0  0  0  0  0  0
  -17.0884   15.3091  -32.0866 O   0  0  0  0  0  0  0  0  0  0  0  0
  -16.6959   14.7524  -30.8927 C   0  0  0  0  0  0  0  0  0  0  0  0
  -17.5362   14.3421  -30.0532 O   0  0  0  0  0  0  0  0  0  0  0  0
  -15.3145   14.5914  -30.5002 N   0  0  0  0  0  0  0  0  0  0  0  0
  -14.9447   13.7979  -29.3819 C   0  0  0  0  0  0  0  0  0  0  0  0
  -15.6980   13.8445  -28.2133 C   0  0  0  0  0  0  0  0  0  0  0  0
  -15.3775   13.0780  -27.1156 C   0  0  0  0  0  0  0  0  0  0  0  0
  -14.2943   12.2325  -27.1328 C   0  0  0  0  0  0  0  0  0  0  0  0
  -13.5495   12.1866  -28.2879 C   0  0  0  0  0  0  0  0  0  0  0  0
  -13.8649   12.9623  -29.4142 C   0  0  0  0  0  0  0  0  0  0  0  0
  -12.9839   12.8173  -30.5937 C   0  0  0  0  0  0  0  0  0  0  0  0
  -12.6889   11.5806  -31.1137 C   0  0  0  0  0  0  0  0  0  0  0  0
  -11.8554   11.4670  -32.2342 C   0  0  0  0  0  0  0  0  0  0  0  0
  -11.3337   12.6018  -32.8115 C   0  0  0  0  0  0  0  0  0  0  0  0
  -11.6340   13.8415  -32.2836 C   0  0  0  0  0  0  0  0  0  0  0  0
  -12.4486   13.9549  -31.1878 C   0  0  0  0  0  0  0  0  0  0  0  0
  -16.0133   17.1699  -33.2524 C   0  0  0  0  0  0  0  0  0  0  0  0
  -16.5444   17.9277  -34.4139 C   0  0  0  0  0  0  0  0  0  0  0  0
  -20.8820   20.7617  -36.0421 C   0  0  0  0  0  0  0  0  0  0  0  0
  -20.6561   21.8001  -35.3270 O   0  0  0  0  0  0  0  0  0  0  0  0
  -21.1179   20.9686  -37.4578 C   0  0  0  0  0  0  0  0  0  0  0  0
  -20.2887   20.4606  -38.4500 C   0  0  0  0  0  0  0  0  0  0  0  0
  -20.5246   20.6510  -39.7737 C   0  0  0  0  0  0  0  0  0  0  0  0
  -21.6319   21.3801  -40.2157 C   0  0  0  0  0  0  0  0  0  0  0  0
  -21.8341   21.5444  -41.6700 C   0  0  0  0  0  0  0  0  0  0  0  0
  -22.5958   22.6994  -42.0333 N   0  0  0  0  0  0  0  0  0  0  0  0
  -22.0494   23.9156  -41.5707 C   0  0  0  0  0  0  0  0  0  0  0  0
  -20.8652   24.3917  -42.3525 C   0  0  0  0  0  0  0  0  0  0  0  0
  -21.1505   24.3982  -43.8496 C   0  0  0  0  0  0  0  0  0  0  0  0
  -19.8610   24.6188  -44.5530 C   0  0  0  0  0  0  0  0  0  0  0  0
  -19.2596   25.9086  -44.3776 N   0  0  0  0  0  0  0  0  0  0  0  0
  -19.2917   23.7672  -45.2652 O   0  0  0  0  0  0  0  0  0  0  0  0
  -21.6193   22.9910  -44.2198 C   0  0  0  0  0  0  0  0  0  0  0  0
  -22.8637   22.7147  -43.4364 C   0  0  0  0  0  0  0  0  0  0  0  0
  -22.4481   21.8806  -39.2386 C   0  0  0  0  0  0  0  0  0  0  0  0
  -22.2116   21.6891  -37.8908 C   0  0  0  0  0  0  0  0  0  0  0  0
  1  2  1  0
  2  3  1  0
  3  4  1  0
  4  5  1  0
  5  6  1  0
  6  7  1  0
  7  8  1  0
  8  9  1  0
  9 10  1  0
 10 11  2  0
 10 12  1  0
 12 13  1  0
 13 14  2  0
 14 15  1  0
 15 16  2  0
 16 17  1  0
 17 18  2  0
 18 19  1  0
 19 20  2  0
 20 21  1  0
 21 22  2  0
 22 23  1  0
 23 24  2  0
  8 25  1  0
 25 26  1  0
  2 27  1  0
 27 28  2  0
 27 29  1  0
 29 30  2  0
 30 31  1  0
 31 32  2  0
 32 33  1  0
 33 34  1  0
 34 35  1  0
 35 36  1  0
 36 37  1  0
 37 38  1  0
 38 39  1  0
 38 40  2  0
 37 41  1  0
 41 42  1  0
 32 43  1  0
 43 44  2  0
 26  5  1  0
 44 29  1  0
 18 13  1  0
 24 19  1  0
 42 34  1  0
M  END
$$$$
