
     RDKit          3D

 29 31  0  0  0  0  0  0  0  0999 V2000
  -21.8227   42.1068  -27.1122 C   0  0  0  0  0  0  0  0  0  0  0  0
  -22.1022   41.1154  -25.9962 C   0  0  0  0  0  0  0  0  0  0  0  0
  -23.5778   41.0558  -25.6689 C   0  0  0  0  0  0  0  0  0  0  0  0
  -21.6677   39.7862  -26.3383 N   0  0  0  0  0  0  0  0  0  0  0  0
  -20.7281   39.1055  -25.5037 C   0  0  0  0  0  0  0  0  0  0  0  0
  -20.3628   39.6164  -24.2755 C   0  0  0  0  0  0  0  0  0  0  0  0
  -19.4526   38.9791  -23.4412 C   0  0  0  0  0  0  0  0  0  0  0  0
  -19.0777   39.5316  -22.1479 C   0  0  0  0  0  0  0  0  0  0  0  0
  -19.5792   39.1378  -20.9260 C   0  0  0  0  0  0  0  0  0  0  0  0
  -18.9775   39.8944  -19.9615 N   0  0  0  0  0  0  0  0  0  0  0  0
  -18.1116   40.7557  -20.5200 C   0  0  0  0  0  0  0  0  0  0  0  0
  -17.2786   41.7299  -19.8124 C   0  0  0  0  0  0  0  0  0  0  0  0
  -17.2614   41.7893  -18.5574 O   0  0  0  0  0  0  0  0  0  0  0  0
  -16.4512   42.6530  -20.5086 N   0  0  0  0  0  0  0  0  0  0  0  0
  -15.6752   43.6507  -19.7820 C   0  0  2  0  0  0  0  0  0  0  0  0
  -15.8322   44.9672  -20.5100 C   0  0  0  0  0  0  0  0  0  0  0  0
  -15.7223   44.8302  -21.8795 O   0  0  0  0  0  0  0  0  0  0  0  0
  -14.2690   43.1856  -19.7636 C   0  0  0  0  0  0  0  0  0  0  0  0
  -13.7269   42.4227  -20.7873 C   0  0  0  0  0  0  0  0  0  0  0  0
  -12.4269   41.9953  -20.7652 C   0  0  0  0  0  0  0  0  0  0  0  0
  -11.6317   42.3284  -19.7012 C   0  0  0  0  0  0  0  0  0  0  0  0
  -12.1211   43.0959  -18.6379 C   0  0  0  0  0  0  0  0  0  0  0  0
  -11.0594   43.4896  -17.3077 Cl  0  0  0  0  0  0  0  0  0  0  0  0
  -13.4381   43.5001  -18.7113 C   0  0  0  0  0  0  0  0  0  0  0  0
  -18.1783   40.5257  -21.8770 C   0  0  0  0  0  0  0  0  0  0  0  0
  -18.9253   37.7950  -23.9075 C   0  0  0  0  0  0  0  0  0  0  0  0
  -17.7682   36.9430  -22.8956 Cl  0  0  0  0  0  0  0  0  0  0  0  0
  -19.2775   37.2672  -25.1326 C   0  0  0  0  0  0  0  0  0  0  0  0
  -20.1643   37.9442  -25.8801 N   0  0  0  0  0  0  0  0  0  0  0  0
  1  2  1  0
  2  3  1  0
  2  4  1  0
  4  5  1  0
  5  6  2  0
  6  7  1  0
  7  8  1  0
  8  9  2  0
  9 10  1  0
 10 11  1  0
 11 12  1  0
 12 13  2  0
 12 14  1  0
 14 15  1  0
 15 16  1  6
 16 17  1  0
 15 18  1  0
 18 19  2  0
 19 20  1  0
 20 21  2  0
 21 22  1  0
 22 23  1  0
 22 24  2  0
 11 25  2  0
  7 26  2  0
 26 27  1  0
 26 28  1  0
 28 29  2  0
 29  5  1  0
 25  8  1  0
 24 18  1  0
M  END
$$$$
