
     RDKit          3D

 23 26  0  0  0  0  0  0  0  0999 V2000
  -17.8316   41.2233  -25.6360 C   0  0  0  0  0  0  0  0  0  0  0  0
  -18.9880   40.3298  -25.3351 C   0  0  0  0  0  0  0  0  0  0  0  0
  -20.2179   41.1641  -25.0667 C   0  0  0  0  0  0  0  0  0  0  0  0
  -18.7668   39.4892  -24.1698 N   0  0  0  0  0  0  0  0  0  0  0  0
  -18.8620   38.1903  -24.1355 N   0  0  0  0  0  0  0  0  0  0  0  0
  -18.5890   37.7000  -22.8737 C   0  0  0  0  0  0  0  0  0  0  0  0
  -18.6237   36.2789  -22.5556 C   0  0  0  0  0  0  0  0  0  0  0  0
  -17.4488   35.5954  -22.1821 C   0  0  0  0  0  0  0  0  0  0  0  0
  -17.7361   34.2954  -21.9384 C   0  0  0  0  0  0  0  0  0  0  0  0
  -16.9898   33.1836  -21.5464 C   0  0  0  0  0  0  0  0  0  0  0  0
  -17.6363   31.9905  -21.3935 C   0  0  0  0  0  0  0  0  0  0  0  0
  -16.9122   30.8776  -21.0054 O   0  0  0  0  0  0  0  0  0  0  0  0
  -18.9976   31.8557  -21.6146 C   0  0  0  0  0  0  0  0  0  0  0  0
  -19.7433   32.9641  -22.0058 C   0  0  0  0  0  0  0  0  0  0  0  0
  -19.0744   34.1570  -22.1544 C   0  0  0  0  0  0  0  0  0  0  0  0
  -19.5785   35.3780  -22.5266 N   0  0  0  0  0  0  0  0  0  0  0  0
  -18.3200   38.8183  -22.1471 C   0  0  0  0  0  0  0  0  0  0  0  0
  -17.9773   39.0713  -20.8436 C   0  0  0  0  0  0  0  0  0  0  0  0
  -17.8259   38.0433  -19.9001 N   0  0  0  0  0  0  0  0  0  0  0  0
  -17.7755   40.3587  -20.4433 N   0  0  0  0  0  0  0  0  0  0  0  0
  -17.8939   41.4103  -21.2613 C   0  0  0  0  0  0  0  0  0  0  0  0
  -18.2280   41.2035  -22.5449 N   0  0  0  0  0  0  0  0  0  0  0  0
  -18.4304   39.9577  -22.9609 C   0  0  0  0  0  0  0  0  0  0  0  0
  1  2  1  0
  2  3  1  0
  2  4  1  0
  4  5  1  0
  5  6  2  0
  6  7  1  0
  7  8  2  0
  8  9  1  0
  9 10  2  0
 10 11  1  0
 11 12  1  0
 11 13  2  0
 13 14  1  0
 14 15  2  0
 15 16  1  0
  6 17  1  0
 17 18  2  0
 18 19  1  0
 18 20  1  0
 20 21  2  0
 21 22  1  0
 22 23  2  0
 23  4  1  0
 16  7  1  0
 23 17  1  0
 15  9  1  0
M  END
$$$$
