
     RDKit          3D

 35 38  0  0  0  0  0  0  0  0999 V2000
  -16.6581   35.0690  -23.4500 C   0  0  0  0  0  0  0  0  0  0  0  0
  -17.8133   34.7506  -22.5942 C   0  0  0  0  0  0  0  0  0  0  0  0
  -17.8860   33.9410  -21.5342 N   0  0  0  0  0  0  0  0  0  0  0  0
  -19.1039   33.9306  -21.0437 N   0  0  0  0  0  0  0  0  0  0  0  0
  -19.8953   34.7626  -21.7928 C   0  0  0  0  0  0  0  0  0  0  0  0
  -21.3269   34.9945  -21.4592 C   0  0  0  0  0  0  0  0  0  0  0  0
  -21.7927   34.2055  -20.4774 F   0  0  0  0  0  0  0  0  0  0  0  0
  -21.5600   36.3303  -21.1692 F   0  0  0  0  0  0  0  0  0  0  0  0
  -22.0960   34.7106  -22.6041 F   0  0  0  0  0  0  0  0  0  0  0  0
  -19.0977   35.2903  -22.7800 C   0  0  0  0  0  0  0  0  0  0  0  0
  -19.5082   36.2725  -23.7729 C   0  0  0  0  0  0  0  0  0  0  0  0
  -19.0865   37.6530  -23.5943 C   0  0  0  0  0  0  0  0  0  0  0  0
  -18.3700   38.2357  -22.0050 S   0  0  0  0  0  0  0  0  0  0  0  0
  -18.1136   39.8692  -22.4969 C   0  0  0  0  0  0  0  0  0  0  0  0
  -18.5527   39.9160  -23.7708 C   0  0  0  0  0  0  0  0  0  0  0  0
  -19.0460   38.7978  -24.3312 C   0  0  0  0  0  0  0  0  0  0  0  0
  -19.5706   38.7208  -25.7432 C   0  0  0  0  0  0  0  0  0  0  0  0
  -19.1132   37.8503  -26.5231 O   0  0  0  0  0  0  0  0  0  0  0  0
  -20.5684   39.6226  -26.1726 N   0  0  0  0  0  0  0  0  0  0  0  0
  -21.0249   39.8541  -27.5358 C   0  0  0  0  0  0  0  0  0  0  0  0
  -22.5060   40.1071  -27.2937 C   0  0  2  0  0  0  0  0  0  0  0  0
  -23.3207   38.8705  -27.4705 C   0  0  0  0  0  0  0  0  0  0  0  0
  -22.9543   41.0642  -28.2175 O   0  0  0  0  0  0  0  0  0  0  0  0
  -22.4868   40.6524  -25.8932 C   0  0  0  0  0  0  0  0  0  0  0  0
  -21.2628   40.4169  -25.3263 O   0  0  0  0  0  0  0  0  0  0  0  0
  -18.4301   41.1896  -24.3709 C   0  0  0  0  0  0  0  0  0  0  0  0
  -18.7862   41.4206  -25.5472 O   0  0  0  0  0  0  0  0  0  0  0  0
  -17.9172   42.1962  -23.6716 N   0  0  0  0  0  0  0  0  0  0  0  0
  -17.7888   43.5144  -24.2932 C   0  0  0  0  0  0  0  0  0  0  0  0
  -17.4880   42.1136  -22.3986 C   0  0  0  0  0  0  0  0  0  0  0  0
  -17.0121   43.0792  -21.7727 O   0  0  0  0  0  0  0  0  0  0  0  0
  -17.5900   40.9191  -21.7992 N   0  0  0  0  0  0  0  0  0  0  0  0
  -17.1481   40.7520  -20.4255 C   0  0  0  0  0  0  0  0  0  0  0  0
  -16.0759   41.7860  -20.0708 C   0  0  0  0  0  0  0  0  0  0  0  0
  -18.2766   40.9530  -19.4363 C   0  0  0  0  0  0  0  0  0  0  0  0
  1  2  1  0
  2  3  1  0
  3  4  1  0
  4  5  2  0
  5  6  1  0
  6  7  1  0
  6  8  1  0
  6  9  1  0
  5 10  1  0
 10 11  1  0
 11 12  1  0
 12 13  1  0
 13 14  1  0
 14 15  2  0
 15 16  1  0
 16 17  1  0
 17 18  2  0
 17 19  1  0
 19 20  1  0
 20 21  1  0
 21 22  1  1
 21 23  1  0
 21 24  1  0
 24 25  1  0
 15 26  1  0
 26 27  2  0
 26 28  1  0
 28 29  1  0
 28 30  1  0
 30 31  2  0
 30 32  1  0
 32 33  1  0
 33 34  1  0
 33 35  1  0
 10  2  2  0
 16 12  2  0
 25 19  1  0
 32 14  1  0
M  END
$$$$
