
     RDKit          3D

 10 10  0  0  0  0  0  0  0  0999 V2000
  -14.1279   -4.5538  -35.1205 C   0  0  0  0  0  0  0  0  0  0  0  0
  -13.8187   -3.3086  -34.3810 C   0  0  0  0  0  0  0  0  0  0  0  0
  -14.7450   -2.6119  -33.8422 O   0  0  0  0  0  0  0  0  0  0  0  0
  -12.5056   -2.8085  -34.2190 N   0  0  0  0  0  0  0  0  0  0  0  0
  -12.2258   -1.5688  -33.5048 C   0  0  0  0  0  0  0  0  0  0  0  0
  -11.2340   -0.8890  -33.2441 N   0  0  0  0  0  0  0  0  0  0  0  0
  -11.3402    0.2209  -32.5489 N   0  0  0  0  0  0  0  0  0  0  0  0
  -12.2731    0.6686  -32.1295 C   0  0  0  0  0  0  0  0  0  0  0  0
  -12.9449    2.0964  -31.1516 Cl  0  0  0  0  0  0  0  0  0  0  0  0
  -13.5492   -0.6092  -32.7114 S   0  0  0  0  0  0  0  0  0  0  0  0
  1  2  1  0
  2  3  2  0
  2  4  1  0
  4  5  1  0
  5  6  2  0
  6  7  1  0
  7  8  2  0
  8  9  1  0
  8 10  1  0
 10  5  1  0
M  END
$$$$
