
     RDKit          3D

 12 12  0  0  0  0  0  0  0  0999 V2000
  -15.8694   36.9455  -21.7673 O   0  0  0  0  0  0  0  0  0  0  0  0
  -17.0656   36.7233  -22.1145 C   0  0  0  0  0  0  0  0  0  0  0  0
  -17.8715   37.8842  -22.5032 C   0  0  0  0  0  0  0  0  0  0  0  0
  -17.1810   39.5147  -22.4801 Cl  0  0  0  0  0  0  0  0  0  0  0  0
  -19.1264   37.6686  -22.8695 C   0  0  0  0  0  0  0  0  0  0  0  0
  -20.0787   39.0683  -23.3320 Cl  0  0  0  0  0  0  0  0  0  0  0  0
  -19.6677   36.3200  -22.8792 C   0  0  0  0  0  0  0  0  0  0  0  0
  -20.8502   36.1521  -23.2285 O   0  0  0  0  0  0  0  0  0  0  0  0
  -18.8748   35.1853  -22.4977 C   0  0  0  0  0  0  0  0  0  0  0  0
  -19.5071   33.5350  -22.5002 Cl  0  0  0  0  0  0  0  0  0  0  0  0
  -17.6150   35.3739  -22.1267 C   0  0  0  0  0  0  0  0  0  0  0  0
  -16.5807   34.0555  -21.6481 Cl  0  0  0  0  0  0  0  0  0  0  0  0
  1  2  2  0
  2  3  1  0
  3  4  1  0
  3  5  2  0
  5  6  1  0
  5  7  1  0
  7  8  2  0
  7  9  1  0
  9 10  1  0
  9 11  2  0
 11 12  1  0
 11  2  1  0
M  END
$$$$
