
     RDKit          3D

 13 13  0  0  0  0  0  0  0  0999 V2000
  -11.1635   17.0920  -39.8940 Cl  0  0  0  0  0  0  0  0  0  0  0  0
  -13.0904   16.0057  -37.3356 N   0  0  0  0  0  0  0  0  0  0  0  0
  -13.0003   16.5443  -38.6856 C   0  0  0  0  0  0  0  0  0  0  0  0
  -11.5662   16.9481  -38.9346 C   0  0  0  0  0  0  0  0  0  0  0  0
  -11.3459   17.5103  -40.2782 C   0  0  0  0  0  0  0  0  0  0  0  0
  -12.2108   17.9696  -41.2411 C   0  0  0  0  0  0  0  0  0  0  0  0
  -11.5496   18.3955  -42.3353 N   0  0  0  0  0  0  0  0  0  0  0  0
  -10.2452   18.2110  -42.0780 C   0  0  0  0  0  0  0  0  0  0  0  0
   -9.1224   18.4712  -42.8556 C   0  0  0  0  0  0  0  0  0  0  0  0
   -7.8605   18.1827  -42.3614 C   0  0  0  0  0  0  0  0  0  0  0  0
   -7.7015   17.6389  -41.0992 C   0  0  0  0  0  0  0  0  0  0  0  0
   -8.8092   17.3740  -40.3108 C   0  0  0  0  0  0  0  0  0  0  0  0
  -10.0814   17.6678  -40.8190 C   0  0  0  0  0  0  0  0  0  0  0  0
  2  3  1  0
  3  4  1  0
  4  5  1  0
  5  6  2  0
  6  7  1  0
  7  8  1  0
  8  9  2  0
  9 10  1  0
 10 11  2  0
 11 12  1  0
 12 13  2  0
 13  5  1  0
 13  8  1  0
M  END
$$$$
