
     RDKit          3D

 30 34  0  0  0  0  0  0  0  0999 V2000
  -15.4770   40.9892  -20.6203 O   0  0  0  0  0  0  0  0  0  0  0  0
  -16.3743   41.8612  -20.7238 C   0  0  0  0  0  0  0  0  0  0  0  0
  -17.6716   41.4318  -21.1099 N   0  0  0  0  0  0  0  0  0  0  0  0
  -17.9246   40.0753  -21.5261 C   0  0  0  0  0  0  0  0  0  0  0  0
  -17.3473   38.9922  -20.9768 N   0  0  0  0  0  0  0  0  0  0  0  0
  -17.8414   37.9288  -21.6378 C   0  0  0  0  0  0  0  0  0  0  0  0
  -17.6039   36.5698  -21.4991 C   0  0  0  0  0  0  0  0  0  0  0  0
  -18.2441   35.6571  -22.3106 C   0  0  0  0  0  0  0  0  0  0  0  0
  -19.1159   36.1422  -23.2503 C   0  0  0  0  0  0  0  0  0  0  0  0
  -19.3658   37.5073  -23.4025 C   0  0  0  0  0  0  0  0  0  0  0  0
  -20.2960   37.9361  -24.4131 C   0  0  0  0  0  0  0  0  0  0  0  0
  -21.2909   38.8406  -24.1457 C   0  0  0  0  0  0  0  0  0  0  0  0
  -22.1967   39.2611  -25.1240 C   0  0  0  0  0  0  0  0  0  0  0  0
  -22.1265   38.7848  -26.3939 C   0  0  0  0  0  0  0  0  0  0  0  0
  -23.0677   39.2205  -27.4381 C   0  0  0  0  0  0  0  0  0  0  0  0
  -22.9674   40.5972  -27.8217 N   0  0  0  0  0  0  0  0  0  0  0  0
  -21.5874   41.0221  -27.6993 C   0  0  0  0  0  0  0  0  0  0  0  0
  -21.2627   42.2772  -28.4347 C   0  0  0  0  0  0  0  0  0  0  0  0
  -22.6918   43.3349  -28.4631 S   0  0  0  0  0  6  0  0  0  0  0  0
  -22.4505   44.5322  -29.3577 O   0  0  0  0  0  0  0  0  0  0  0  0
  -22.9204   43.8017  -27.0522 O   0  0  0  0  0  0  0  0  0  0  0  0
  -24.0513   42.3520  -29.0483 C   0  0  0  0  0  0  0  0  0  0  0  0
  -23.5516   40.8980  -29.0799 C   0  0  0  0  0  0  0  0  0  0  0  0
  -21.1311   37.8727  -26.6822 C   0  0  0  0  0  0  0  0  0  0  0  0
  -20.2360   37.4559  -25.7188 C   0  0  0  0  0  0  0  0  0  0  0  0
  -18.7067   38.3230  -22.5789 N   0  0  0  0  0  0  0  0  0  0  0  0
  -18.7440   39.6418  -22.4946 N   0  0  0  0  0  0  0  0  0  0  0  0
  -16.0309   43.2635  -20.4413 C   0  0  0  0  0  0  0  0  0  0  0  0
  -14.9586   43.3977  -19.3419 C   0  0  0  0  0  0  0  0  0  0  0  0
  -14.6895   43.8073  -20.7624 C   0  0  0  0  0  0  0  0  0  0  0  0
  1  2  2  0
  2  3  1  0
  3  4  1  0
  4  5  1  0
  5  6  2  0
  6  7  1  0
  7  8  2  0
  8  9  1  0
  9 10  2  0
 10 11  1  0
 11 12  2  0
 12 13  1  0
 13 14  2  0
 14 15  1  0
 15 16  1  0
 16 17  1  0
 17 18  1  0
 18 19  1  0
 19 20  2  0
 19 21  2  0
 19 22  1  0
 22 23  1  0
 14 24  1  0
 24 25  2  0
 10 26  1  0
 26 27  1  0
  2 28  1  0
 28 29  1  0
 29 30  1  0
 27  4  2  0
 30 28  1  0
 26  6  1  0
 25 11  1  0
 23 16  1  0
M  END
$$$$
