
     RDKit          3D

 19 20  0  0  0  0  0  0  0  0999 V2000
  -16.3813   43.7103  -23.0456 C   0  0  0  0  0  0  0  0  0  0  0  0
  -16.7954   43.0680  -21.8564 O   0  0  0  0  0  0  0  0  0  0  0  0
  -17.3806   41.8082  -21.8528 C   0  0  0  0  0  0  0  0  0  0  0  0
  -17.5306   41.0952  -20.6877 C   0  0  0  0  0  0  0  0  0  0  0  0
  -18.1188   39.8295  -20.6853 C   0  0  0  0  0  0  0  0  0  0  0  0
  -18.5700   39.2502  -21.8518 C   0  0  0  0  0  0  0  0  0  0  0  0
  -19.1885   37.9241  -21.8629 C   0  0  0  0  0  0  0  0  0  0  0  0
  -18.2029   36.7959  -22.0109 C   0  0  1  0  0  0  0  0  0  0  0  0
  -18.5443   35.6592  -21.1710 N   0  0  0  0  0  0  0  0  0  0  0  0
  -17.7667   34.6050  -21.7986 C   0  0  0  0  0  0  0  0  0  0  0  0
  -18.2083   34.7264  -23.2425 C   0  0  2  0  0  0  0  0  0  0  0  0
  -17.1728   34.2391  -24.0466 O   0  0  0  0  0  0  0  0  0  0  0  0
  -18.3465   36.2164  -23.4026 C   0  0  1  0  0  0  0  0  0  0  0  0
  -19.5731   36.6130  -23.9488 O   0  0  0  0  0  0  0  0  0  0  0  0
  -19.8483   36.6993  -25.2920 C   0  0  0  0  0  0  0  0  0  0  0  0
  -21.1294   37.2139  -25.8414 C   0  0  0  0  0  0  0  0  0  0  0  0
  -18.9456   36.3135  -26.0784 O   0  0  0  0  0  0  0  0  0  0  0  0
  -18.4150   39.9739  -23.0165 C   0  0  0  0  0  0  0  0  0  0  0  0
  -17.8295   41.2352  -23.0233 C   0  0  0  0  0  0  0  0  0  0  0  0
  1  2  1  0
  2  3  1  0
  3  4  2  0
  4  5  1  0
  5  6  2  0
  6  7  1  0
  8  7  1  6
  8  9  1  0
  9 10  1  0
 10 11  1  0
 11 12  1  6
 11 13  1  0
 13 14  1  1
 14 15  1  0
 15 16  1  0
 15 17  2  0
  6 18  1  0
 18 19  2  0
 19  3  1  0
 13  8  1  0
M  END
$$$$
