
     RDKit          3D

 34 34  0  0  0  0  0  0  0  0999 V2000
  -15.6447   16.6939  -32.7129 C   0  0  0  0  0  0  0  0  0  0  0  0
  -15.7460   17.7924  -33.7085 C   0  0  0  0  0  0  0  0  0  0  0  0
  -14.6163   18.7868  -33.4579 C   0  0  0  0  0  0  0  0  0  0  0  0
  -15.9365   17.4210  -35.1205 C   0  0  0  0  0  0  0  0  0  0  0  0
  -17.0137   16.4725  -35.4767 C   0  0  1  0  0  0  0  0  0  0  0  0
  -17.0126   15.1907  -34.7445 C   0  0  0  0  0  0  0  0  0  0  0  0
  -16.9614   14.1522  -35.3813 O   0  0  0  0  0  0  0  0  0  0  0  0
  -18.3244   17.0851  -35.5202 N   0  0  0  0  0  0  0  0  0  0  0  0
  -19.3392   16.8510  -34.5524 C   0  0  0  0  0  0  0  0  0  0  0  0
  -19.0791   16.1580  -33.5479 O   0  0  0  0  0  0  0  0  0  0  0  0
  -20.7232   17.4371  -34.7387 C   0  0  2  0  0  0  0  0  0  0  0  0
  -21.5224   16.6213  -35.6979 C   0  0  0  0  0  0  0  0  0  0  0  0
  -21.3252   17.1249  -37.1099 C   0  0  0  0  0  0  0  0  0  0  0  0
  -22.4121   16.5495  -38.0332 C   0  0  0  0  0  0  0  0  0  0  0  0
  -21.3381   18.6293  -37.1707 C   0  0  0  0  0  0  0  0  0  0  0  0
  -20.6112   18.8290  -35.1308 N   0  0  0  0  0  0  0  0  0  0  0  0
  -19.3440   19.4278  -35.4672 C   0  0  0  0  0  0  0  0  0  0  0  0
  -18.6700   18.8893  -36.3818 O   0  0  0  0  0  0  0  0  0  0  0  0
  -18.8275   20.6191  -34.7914 C   0  0  2  0  0  0  0  0  0  0  0  0
  -19.3374   20.7924  -33.3782 C   0  0  0  0  0  0  0  0  0  0  0  0
  -18.7791   21.9875  -32.6834 C   0  0  0  0  0  0  0  0  0  0  0  0
  -19.4167   22.2361  -31.3343 C   0  0  0  0  0  0  0  0  0  0  0  0
  -17.3068   21.6675  -32.3852 C   0  0  0  0  0  0  0  0  0  0  0  0
  -19.1732   21.7952  -35.5588 N   0  0  0  0  0  0  0  0  0  0  0  0
  -20.5679   22.1037  -35.7981 C   0  0  0  0  0  0  0  0  0  0  0  0
  -21.4139   21.9067  -34.8949 O   0  0  0  0  0  0  0  0  0  0  0  0
  -20.8951   22.6048  -37.0254 O   0  0  0  0  0  0  0  0  0  0  0  0
  -22.1937   22.7621  -37.4953 C   0  0  0  0  0  0  0  0  0  0  0  0
  -22.1796   23.2223  -38.9116 C   0  0  0  0  0  0  0  0  0  0  0  0
  -22.7606   22.4143  -39.8815 C   0  0  0  0  0  0  0  0  0  0  0  0
  -22.7898   22.8102  -41.1757 C   0  0  0  0  0  0  0  0  0  0  0  0
  -22.2451   24.0235  -41.5672 C   0  0  0  0  0  0  0  0  0  0  0  0
  -21.6701   24.8220  -40.6012 C   0  0  0  0  0  0  0  0  0  0  0  0
  -21.6408   24.4157  -39.2751 C   0  0  0  0  0  0  0  0  0  0  0  0
  1  2  1  0
  2  3  1  0
  2  4  1  0
  5  4  1  1
  5  6  1  0
  6  7  2  0
  5  8  1  0
  8  9  1  0
  9 10  2  0
  9 11  1  0
 11 12  1  6
 12 13  1  0
 13 14  1  0
 13 15  1  0
 11 16  1  0
 16 17  1  0
 17 18  2  0
 17 19  1  0
 19 20  1  1
 20 21  1  0
 21 22  1  0
 21 23  1  0
 19 24  1  0
 24 25  1  0
 25 26  2  0
 25 27  1  0
 27 28  1  0
 28 29  1  0
 29 30  2  0
 30 31  1  0
 31 32  2  0
 32 33  1  0
 33 34  2  0
 34 29  1  0
M  END
$$$$
