
     RDKit          3D

 39 39  0  0  0  0  0  0  0  0999 V2000
  -17.0813   42.8809  -25.2897 C   0  0  0  0  0  0  0  0  0  0  0  0
  -18.1368   41.7642  -25.0890 C   0  0  0  0  0  0  0  0  0  0  0  0
  -19.1845   41.9895  -26.1513 C   0  0  0  0  0  0  0  0  0  0  0  0
  -18.6371   41.9577  -23.6913 C   0  0  0  0  0  0  0  0  0  0  0  0
  -19.6786   41.0469  -23.1943 C   0  0  2  0  0  0  0  0  0  0  0  0
  -20.0919   41.3146  -21.8399 N   0  0  0  0  0  0  0  0  0  0  0  0
  -18.8556   41.3691  -20.6607 P   0  0  0  0  0  5  0  0  0  0  0  0
  -17.9497   40.1936  -20.5784 O   0  0  0  0  0  0  0  0  0  0  0  0
  -19.6048   41.5189  -19.1314 O   0  0  0  0  0  1  0  0  0  0  0  0
  -17.9885   42.8205  -20.8821 O   0  0  0  0  0  0  0  0  0  0  0  0
  -16.8605   42.8830  -20.0674 C   0  0  2  0  0  0  0  0  0  0  0  0
  -16.9481   43.9076  -19.1483 O   0  0  0  0  0  0  0  0  0  0  0  0
  -15.8520   43.9567  -18.3212 C   0  0  1  0  0  0  0  0  0  0  0  0
  -15.7961   42.7635  -17.3803 C   0  0  0  0  0  0  0  0  0  0  0  0
  -14.5578   44.1480  -19.0581 C   0  0  2  0  0  0  0  0  0  0  0  0
  -13.9465   45.3752  -18.7721 O   0  0  0  0  0  0  0  0  0  0  0  0
  -14.8279   44.1486  -20.5643 C   0  0  1  0  0  0  0  0  0  0  0  0
  -13.6078   44.0401  -21.1935 O   0  0  0  0  0  0  0  0  0  0  0  0
  -15.6256   42.9005  -20.9044 C   0  0  1  0  0  0  0  0  0  0  0  0
  -14.8523   41.7568  -20.6871 O   0  0  0  0  0  0  0  0  0  0  0  0
  -19.4242   39.6184  -23.4628 C   0  0  0  0  0  0  0  0  0  0  0  0
  -18.9804   39.2106  -24.5806 O   0  0  0  0  0  0  0  0  0  0  0  0
  -19.6506   38.5884  -22.5145 N   0  0  0  0  0  0  0  0  0  0  0  0
  -19.3841   37.1665  -22.7988 C   0  0  1  0  0  0  0  0  0  0  0  0
  -18.3941   36.6037  -21.8830 C   0  0  0  0  0  0  0  0  0  0  0  0
  -18.0747   35.1844  -22.1137 C   0  0  0  0  0  0  0  0  0  0  0  0
  -17.1688   34.7064  -23.0922 C   0  0  0  0  0  0  0  0  0  0  0  0
  -17.1580   33.3740  -23.0821 N   0  0  0  0  0  0  0  0  0  0  0  0
  -18.0083   32.9056  -22.1470 C   0  0  0  0  0  0  0  0  0  0  0  0
  -18.3370   31.6185  -21.7245 C   0  0  0  0  0  0  0  0  0  0  0  0
  -19.2256   31.4024  -20.7048 C   0  0  0  0  0  0  0  0  0  0  0  0
  -19.7862   32.5102  -20.1068 C   0  0  0  0  0  0  0  0  0  0  0  0
  -19.4616   33.7714  -20.5246 C   0  0  0  0  0  0  0  0  0  0  0  0
  -18.5634   34.0218  -21.5602 C   0  0  0  0  0  0  0  0  0  0  0  0
  -20.6099   36.4396  -23.0182 C   0  0  0  0  0  0  0  0  0  0  0  0
  -21.2366   36.7746  -24.1256 O   0  0  0  0  0  0  0  0  0  0  0  0
  -21.2107   35.4797  -22.2700 O   0  0  0  0  0  1  0  0  0  0  0  0
  -17.7645   39.6754  -21.7346 Na  0  0  0  0  0 15  0  0  0  0  0  0
  -17.7645   39.6754  -21.7346 Na  0  0  0  0  0 15  0  0  0  0  0  0
  1  2  1  0
  2  3  1  0
  2  4  1  0
  5  4  1  1
  5  6  1  0
  6  7  1  0
  7  8  2  0
  7  9  1  0
  7 10  1  0
 11 10  1  6
 11 12  1  0
 12 13  1  0
 13 14  1  6
 13 15  1  0
 15 16  1  1
 15 17  1  0
 17 18  1  6
 17 19  1  0
 19 20  1  1
  5 21  1  0
 21 22  2  0
 21 23  1  0
 23 24  1  0
 24 25  1  1
 25 26  1  0
 26 27  2  0
 27 28  1  0
 28 29  1  0
 29 30  2  0
 30 31  1  0
 31 32  2  0
 32 33  1  0
 33 34  2  0
 24 35  1  0
 35 36  2  0
 35 37  1  0
 19 11  1  0
 34 26  1  0
 34 29  1  0
M  CHG  4   9  -1  37  -1  38   1  39   1
M  END
$$$$
