
     RDKit          3D

 25 31  0  0  0  0  0  0  0  0999 V2000
  -18.1441   42.5783  -23.9694 O   0  0  0  0  0  0  0  0  0  0  0  0
  -18.5768   41.4002  -24.1303 C   0  0  0  0  0  0  0  0  0  0  0  0
  -19.3670   41.1574  -25.4014 C   0  0  0  0  0  0  0  0  0  0  0  0
  -19.6800   39.6876  -25.5934 C   0  0  0  0  0  0  0  0  0  0  0  0
  -20.6027   39.3500  -26.5118 O   0  0  0  0  0  0  0  0  0  0  0  0
  -20.2670   38.1597  -27.1682 C   0  0  0  0  0  0  0  0  0  0  0  0
  -19.7824   37.0925  -26.2149 C   0  0  0  0  0  0  0  0  0  0  0  0
  -19.9621   36.9279  -24.9210 C   0  0  0  0  0  0  0  0  0  0  0  0
  -19.3413   35.7735  -24.3216 C   0  0  0  0  0  0  0  0  0  0  0  0
  -19.0655   35.8672  -22.9166 N   0  0  0  0  0  0  0  0  0  0  0  0
  -17.6301   35.8106  -22.7241 C   0  0  0  0  0  0  0  0  0  0  0  0
  -17.1358   37.2280  -22.8030 C   0  0  0  0  0  0  0  0  0  0  0  0
  -18.3690   38.1200  -22.5237 C   0  0  0  0  0  0  0  0  0  0  0  0
  -17.9916   39.0189  -21.4070 C   0  0  0  0  0  0  0  0  0  0  0  0
  -17.6759   38.7264  -20.1124 C   0  0  0  0  0  0  0  0  0  0  0  0
  -17.3096   39.6933  -19.1890 C   0  0  0  0  0  0  0  0  0  0  0  0
  -17.2775   40.9966  -19.6476 C   0  0  0  0  0  0  0  0  0  0  0  0
  -17.5892   41.3146  -20.9366 C   0  0  0  0  0  0  0  0  0  0  0  0
  -17.9524   40.3304  -21.8384 C   0  0  0  0  0  0  0  0  0  0  0  0
  -18.3403   40.3909  -23.1932 N   0  0  0  0  0  0  0  0  0  0  0  0
  -18.5693   39.0348  -23.6375 C   0  0  0  0  0  0  0  0  0  0  0  0
  -19.9821   39.1710  -24.1933 C   0  0  0  0  0  0  0  0  0  0  0  0
  -20.7675   37.9234  -24.1168 C   0  0  0  0  0  0  0  0  0  0  0  0
  -20.8222   37.5376  -22.6507 C   0  0  0  0  0  0  0  0  0  0  0  0
  -19.4134   37.1139  -22.2798 C   0  0  0  0  0  0  0  0  0  0  0  0
  1  2  2  0
  2  3  1  0
  3  4  1  0
  4  5  1  0
  5  6  1  0
  6  7  1  0
  7  8  2  0
  8  9  1  0
  9 10  1  0
 10 11  1  0
 11 12  1  0
 12 13  1  0
 13 14  1  0
 14 15  2  0
 15 16  1  0
 16 17  2  0
 17 18  1  0
 18 19  2  0
 19 20  1  0
 20 21  1  0
 21 22  1  0
 22 23  1  0
 23 24  1  0
 24 25  1  0
 20  2  1  0
 22  4  1  0
 23  8  1  0
 25 10  1  0
 21 13  1  0
 25 13  1  0
 19 14  1  0
M  END
$$$$
