
     RDKit          3D

 34 34  0  0  0  0  0  0  0  0999 V2000
  -14.9740   -9.4122  -38.1577 C   0  0  0  0  0  0  0  0  0  0  0  0
  -14.3922   -8.7284  -37.2407 O   0  0  0  0  0  0  0  0  0  0  0  0
  -13.7735   -8.0926  -36.3196 C   0  0  0  0  0  0  0  0  0  0  0  0
  -12.6405   -8.4978  -35.5452 C   0  0  0  0  0  0  0  0  0  0  0  0
  -12.0188   -7.7534  -34.5209 C   0  0  0  0  0  0  0  0  0  0  0  0
  -12.6220   -6.5175  -34.2874 C   0  0  0  0  0  0  0  0  0  0  0  0
  -12.2074   -5.5472  -33.2161 C   0  0  0  0  0  0  0  0  0  0  0  0
  -11.3064   -4.5670  -33.9417 C   0  0  0  0  0  0  0  0  0  0  0  0
  -11.2212   -3.3502  -33.0165 N   0  0  0  0  0  0  0  0  0  0  0  0
  -10.1059   -2.6086  -33.6162 C   0  0  0  0  0  0  0  0  0  0  0  0
  -12.4594   -2.6728  -33.4285 C   0  0  0  0  0  0  0  0  0  0  0  0
  -12.9261   -1.6051  -32.4906 C   0  0  0  0  0  0  0  0  0  0  0  0
  -14.2193   -0.9991  -33.0834 C   0  0  0  0  0  0  0  0  0  0  0  0
  -14.7981   -0.0151  -32.0564 C   0  0  0  0  0  0  0  0  0  0  0  0
  -14.9883   -0.9379  -30.8949 C   0  0  0  0  0  0  0  0  0  0  0  0
  -15.1510   -1.6628  -29.9719 N   0  0  0  0  0  0  0  0  0  0  0  0
  -16.1125    0.4991  -32.5163 C   0  0  0  0  0  0  0  0  0  0  0  0
  -16.7652   -0.0051  -33.5903 C   0  0  0  0  0  0  0  0  0  0  0  0
  -17.9060    0.5999  -34.1147 C   0  0  0  0  0  0  0  0  0  0  0  0
  -18.4035    1.7521  -33.5465 C   0  0  0  0  0  0  0  0  0  0  0  0
  -19.4097    2.4885  -33.9161 O   0  0  0  0  0  0  0  0  0  0  0  0
  -20.4081    2.9930  -34.5496 C   0  0  0  0  0  0  0  0  0  0  0  0
  -17.7380    2.2825  -32.4054 C   0  0  0  0  0  0  0  0  0  0  0  0
  -18.1957    3.3947  -31.7618 O   0  0  0  0  0  0  0  0  0  0  0  0
  -17.5338    3.8267  -30.5729 C   0  0  0  0  0  0  0  0  0  0  0  0
  -16.5995    1.6178  -31.9318 C   0  0  0  0  0  0  0  0  0  0  0  0
  -13.8907    1.0917  -31.7406 C   0  0  0  0  0  0  0  0  0  0  0  0
  -13.4669    1.8425  -33.0052 C   0  0  0  0  0  0  0  0  0  0  0  0
  -12.7047    0.8437  -30.8655 C   0  0  0  0  0  0  0  0  0  0  0  0
  -13.6675   -6.1098  -34.9983 C   0  0  0  0  0  0  0  0  0  0  0  0
  -14.2451   -6.8118  -35.9706 C   0  0  0  0  0  0  0  0  0  0  0  0
  -15.3621   -6.2415  -36.7128 O   0  0  0  0  0  0  0  0  0  0  0  0
  -15.5897   -4.8623  -36.4666 C   0  0  0  0  0  0  0  0  0  0  0  0
  -14.8860   -1.4556  -33.5383 Cl  0  0  0  0  0  0  0  0  0  0  0  0
  1  2  1  0
  2  3  1  0
  3  4  2  0
  4  5  1  0
  5  6  2  0
  6  7  1  0
  7  8  1  0
  8  9  1  0
  9 10  1  0
  9 11  1  0
 11 12  1  0
 12 13  1  0
 13 14  1  0
 14 15  1  0
 15 16  3  0
 14 17  1  0
 17 18  2  0
 18 19  1  0
 19 20  2  0
 20 21  1  0
 21 22  1  0
 20 23  1  0
 23 24  1  0
 24 25  1  0
 23 26  2  0
 14 27  1  0
 27 28  1  0
 27 29  1  0
  6 30  1  0
 30 31  2  0
 31 32  1  0
 32 33  1  0
 31  3  1  0
 26 17  1  0
M  END
$$$$
