
     RDKit          3D

 30 34  0  0  0  0  0  0  0  0999 V2000
  -25.4151   28.2634  -34.6031 C   0  0  0  0  0  0  0  0  0  0  0  0
  -25.9083   27.0614  -33.9323 C   0  0  0  0  0  0  0  0  0  0  0  0
  -26.4281   27.1684  -32.6801 N   0  0  0  0  0  0  0  0  0  0  0  0
  -26.8955   26.0921  -32.0059 C   0  0  0  0  0  0  0  0  0  0  0  0
  -26.8390   24.8918  -32.5992 N   0  0  0  0  0  0  0  0  0  0  0  0
  -26.3345   24.7394  -33.8332 C   0  0  0  0  0  0  0  0  0  0  0  0
  -26.2761   23.6081  -34.4048 O   0  0  0  0  0  0  0  0  0  0  0  0
  -25.8454   25.8393  -34.5497 C   0  0  0  0  0  0  0  0  0  0  0  0
  -25.2875   25.7321  -35.9119 C   0  0  0  0  0  0  0  0  0  0  0  0
  -24.1237   24.7787  -35.8726 C   0  0  0  0  0  0  0  0  0  0  0  0
  -23.7295   24.2520  -37.1342 N   0  0  0  0  0  0  0  0  0  0  0  0
  -24.4621   23.1316  -37.6187 C   0  0  0  0  0  0  0  0  0  0  0  0
  -24.0358   22.9112  -39.0646 C   0  0  0  0  0  0  0  0  0  0  0  0
  -22.6567   22.2918  -39.0353 C   0  0  0  0  0  0  0  0  0  0  0  0
  -21.9015   22.5746  -40.2836 C   0  0  0  0  0  0  0  0  0  0  0  0
  -20.5577   22.6654  -40.4535 N   0  0  0  0  0  0  0  0  0  0  0  0
  -20.2820   22.9250  -41.6855 O   0  0  0  0  0  0  0  0  0  0  0  0
  -21.3611   23.0273  -42.4224 C   0  0  0  0  0  0  0  0  0  0  0  0
  -21.5774   23.2872  -43.7616 C   0  0  0  0  0  0  0  0  0  0  0  0
  -22.8640   23.3346  -44.2681 C   0  0  0  0  0  0  0  0  0  0  0  0
  -23.0918   23.5919  -45.5976 F   0  0  0  0  0  0  0  0  0  0  0  0
  -23.9078   23.1147  -43.3940 C   0  0  0  0  0  0  0  0  0  0  0  0
  -23.6908   22.8541  -42.0522 C   0  0  0  0  0  0  0  0  0  0  0  0
  -22.4172   22.8063  -41.5451 C   0  0  0  0  0  0  0  0  0  0  0  0
  -21.8743   22.7784  -37.8390 C   0  0  0  0  0  0  0  0  0  0  0  0
  -22.3290   24.1148  -37.3439 C   0  0  0  0  0  0  0  0  0  0  0  0
  -27.3422   23.7627  -31.8564 C   0  0  0  0  0  0  0  0  0  0  0  0
  -26.6756   23.7979  -30.4948 C   0  0  0  0  0  0  0  0  0  0  0  0
  -26.9936   25.0749  -29.7610 C   0  0  0  0  0  0  0  0  0  0  0  0
  -27.4702   26.1890  -30.6375 C   0  0  0  0  0  0  0  0  0  0  0  0
  1  2  1  0
  2  3  1  0
  3  4  2  0
  4  5  1  0
  5  6  1  0
  6  7  2  0
  6  8  1  0
  8  9  1  0
  9 10  1  0
 10 11  1  0
 11 12  1  0
 12 13  1  0
 13 14  1  0
 14 15  1  0
 15 16  2  0
 16 17  1  0
 17 18  1  0
 18 19  2  0
 19 20  1  0
 20 21  1  0
 20 22  2  0
 22 23  1  0
 23 24  2  0
 14 25  1  0
 25 26  1  0
  5 27  1  0
 27 28  1  0
 28 29  1  0
 29 30  1  0
  8  2  2  0
 26 11  1  0
 30  4  1  0
 24 15  1  0
 24 18  1  0
M  END
$$$$
