
     RDKit          3D

 11 11  0  0  0  0  0  0  0  0999 V2000
  -14.0940   12.7402  -29.8878 N   0  0  0  0  0  0  0  0  0  0  0  0
  -14.6193   13.9945  -30.2119 N   0  0  0  0  0  0  0  0  0  0  0  0
  -16.0002   14.2344  -30.4259 C   0  0  0  0  0  0  0  0  0  0  0  0
  -16.7743   13.2617  -30.2235 O   0  0  0  0  0  0  0  0  0  0  0  0
  -16.5454   15.5067  -30.8533 C   0  0  0  0  0  0  0  0  0  0  0  0
  -15.7588   16.6212  -31.0909 C   0  0  0  0  0  0  0  0  0  0  0  0
  -16.3170   17.8160  -31.4971 C   0  0  0  0  0  0  0  0  0  0  0  0
  -17.6856   17.9208  -31.6754 C   0  0  0  0  0  0  0  0  0  0  0  0
  -18.2647   19.1489  -32.0935 N   0  0  0  0  0  0  0  0  0  0  0  0
  -18.4348   16.7903  -31.4292 C   0  0  0  0  0  0  0  0  0  0  0  0
  -17.9250   15.5801  -31.0237 C   0  0  0  0  0  0  0  0  0  0  0  0
  1  2  1  0
  2  3  1  0
  3  4  2  0
  3  5  1  0
  5  6  2  0
  6  7  1  0
  7  8  2  0
  8  9  1  0
  8 10  1  0
 10 11  2  0
 11  5  1  0
M  END
$$$$
