
     RDKit          3D

 31 35  0  0  0  0  0  0  0  0999 V2000
  -29.1006   11.2144  -30.7377 C   0  0  0  0  0  0  0  0  0  0  0  0
  -28.7841   12.4544  -30.0375 N   0  0  0  0  0  0  0  0  0  0  0  0
  -29.6915   12.9942  -29.1062 C   0  0  0  0  0  0  0  0  0  0  0  0
  -30.6919   12.2481  -28.8182 O   0  0  0  0  0  0  0  0  0  0  0  0
  -29.5850   14.2906  -28.4666 C   0  0  0  0  0  0  0  0  0  0  0  0
  -29.1548   15.3777  -29.2423 C   0  0  0  0  0  0  0  0  0  0  0  0
  -29.0327   16.6244  -28.7019 C   0  0  0  0  0  0  0  0  0  0  0  0
  -29.3266   16.8814  -27.3610 C   0  0  0  0  0  0  0  0  0  0  0  0
  -29.1824   18.2317  -26.8216 C   0  0  0  0  0  0  0  0  0  0  0  0
  -28.7322   18.4988  -25.5524 C   0  0  0  0  0  0  0  0  0  0  0  0
  -28.6067   19.7546  -25.0744 N   0  0  0  0  0  0  0  0  0  0  0  0
  -28.9525   20.7716  -25.9210 C   0  0  0  0  0  0  0  0  0  0  0  0
  -28.9367   22.1162  -25.7364 N   0  0  0  0  0  0  0  0  0  0  0  0
  -29.3655   22.7112  -26.8563 C   0  0  0  0  0  0  0  0  0  0  0  0
  -29.6519   21.7180  -27.7500 C   0  0  0  0  0  0  0  0  0  0  0  0
  -30.1608   21.8996  -29.1342 C   0  0  0  0  0  0  0  0  0  0  0  0
  -29.0289   21.9902  -30.1133 C   0  0  0  0  0  0  0  0  0  0  0  0
  -28.4530   20.8559  -30.6480 C   0  0  0  0  0  0  0  0  0  0  0  0
  -27.4126   20.9667  -31.5470 C   0  0  0  0  0  0  0  0  0  0  0  0
  -26.9060   22.1878  -31.9485 C   0  0  0  0  0  0  0  0  0  0  0  0
  -25.8875   22.2931  -32.8287 N   0  0  0  0  0  0  0  0  0  0  0  0
  -25.3892   23.4837  -33.2240 C   0  0  0  0  0  0  0  0  0  0  0  0
  -25.9255   24.6637  -32.7222 C   0  0  0  0  0  0  0  0  0  0  0  0
  -26.9640   24.5348  -31.8254 C   0  0  0  0  0  0  0  0  0  0  0  0
  -27.4781   23.3235  -31.4171 C   0  0  0  0  0  0  0  0  0  0  0  0
  -28.5176   23.2070  -30.5191 C   0  0  0  0  0  0  0  0  0  0  0  0
  -29.3928   20.5417  -27.1592 N   0  0  0  0  0  0  0  0  0  0  0  0
  -29.5027   19.2756  -27.5952 N   0  0  0  0  0  0  0  0  0  0  0  0
  -29.7435   15.8139  -26.6206 C   0  0  0  0  0  0  0  0  0  0  0  0
  -29.8796   14.5193  -27.1458 C   0  0  0  0  0  0  0  0  0  0  0  0
  -30.3012   13.5291  -26.3252 F   0  0  0  0  0  0  0  0  0  0  0  0
  1  2  1  0
  2  3  1  0
  3  4  2  0
  3  5  1  0
  5  6  2  0
  6  7  1  0
  7  8  2  0
  8  9  1  0
  9 10  1  0
 10 11  2  0
 11 12  1  0
 12 13  2  0
 13 14  1  0
 14 15  2  0
 15 16  1  0
 16 17  1  0
 17 18  2  0
 18 19  1  0
 19 20  2  0
 20 21  1  0
 21 22  2  0
 22 23  1  0
 23 24  2  0
 24 25  1  0
 25 26  2  0
 15 27  1  0
 27 28  1  0
  8 29  1  0
 29 30  2  0
 30 31  1  0
 30  5  1  0
 28  9  2  0
 27 12  1  0
 26 17  1  0
 25 20  1  0
M  END
$$$$
