
     RDKit          3D

 12 12  0  0  0  0  0  0  0  0999 V2000
  -17.2123   40.3371  -20.9500 C   0  0  0  0  0  0  0  0  0  0  0  0
  -17.1235   39.4762  -22.1961 C   0  0  0  0  0  0  0  0  0  0  0  0
  -17.8302   38.1848  -21.9132 C   0  0  0  0  0  0  0  0  0  0  0  0
  -17.7476   37.2297  -23.0884 C   0  0  0  0  0  0  0  0  0  0  0  0
  -18.3162   35.9222  -22.6995 C   0  0  0  0  0  0  0  0  0  0  0  0
  -17.4830   34.8914  -22.2879 C   0  0  0  0  0  0  0  0  0  0  0  0
  -18.0250   33.6788  -21.9285 C   0  0  0  0  0  0  0  0  0  0  0  0
  -19.3925   33.4808  -21.9746 C   0  0  0  0  0  0  0  0  0  0  0  0
  -19.9679   32.2479  -21.6112 O   0  0  0  0  0  0  0  0  0  0  0  0
  -20.2010   34.5102  -22.3837 C   0  0  0  0  0  0  0  0  0  0  0  0
  -19.6922   35.7382  -22.7509 C   0  0  0  0  0  0  0  0  0  0  0  0
  -20.5432   36.7478  -23.1569 O   0  0  0  0  0  0  0  0  0  0  0  0
  1  2  1  0
  2  3  1  0
  3  4  1  0
  4  5  1  0
  5  6  2  0
  6  7  1  0
  7  8  2  0
  8  9  1  0
  8 10  1  0
 10 11  2  0
 11 12  1  0
 11  5  1  0
M  END
$$$$
