
     RDKit          3D

 47 52  0  0  0  0  0  0  0  0999 V2000
  -15.4071   31.6698  -19.5510 C   0  0  0  0  0  0  0  0  0  0  0  0
  -16.1153   31.8987  -20.7575 O   0  0  0  0  0  0  0  0  0  0  0  0
  -16.6722   33.1407  -20.9808 C   0  0  0  0  0  0  0  0  0  0  0  0
  -15.9484   34.2871  -20.7750 C   0  0  0  0  0  0  0  0  0  0  0  0
  -16.5367   35.5048  -21.0088 C   0  0  0  0  0  0  0  0  0  0  0  0
  -17.8258   35.6201  -21.4423 C   0  0  0  0  0  0  0  0  0  0  0  0
  -18.5259   34.4299  -21.6386 C   0  0  0  0  0  0  0  0  0  0  0  0
  -18.0051   33.1873  -21.4261 C   0  0  0  0  0  0  0  0  0  0  0  0
  -18.6992   32.0110  -21.6188 O   0  0  0  0  0  0  0  0  0  0  0  0
  -19.4314   31.6422  -22.7299 C   0  0  0  0  0  0  0  0  0  0  0  0
  -18.6065   30.8675  -23.7338 C   0  0  0  0  0  0  0  0  0  0  0  0
  -20.6379   30.7796  -22.3741 C   0  0  0  0  0  0  0  0  0  0  0  0
  -18.4422   36.9212  -21.6748 C   0  0  2  0  0  0  0  0  0  0  0  0
  -19.5616   36.8427  -22.6582 C   0  0  0  0  0  0  0  0  0  0  0  0
  -20.8671   36.7640  -22.2211 C   0  0  0  0  0  0  0  0  0  0  0  0
  -21.9414   36.6751  -23.0798 C   0  0  0  0  0  0  0  0  0  0  0  0
  -21.7322   36.6620  -24.4571 C   0  0  0  0  0  0  0  0  0  0  0  0
  -23.0903   36.5510  -25.5681 Cl  0  0  0  0  0  0  0  0  0  0  0  0
  -20.4350   36.7401  -24.8930 C   0  0  0  0  0  0  0  0  0  0  0  0
  -19.3738   36.8282  -24.0194 C   0  0  0  0  0  0  0  0  0  0  0  0
  -17.4803   37.9340  -21.9893 N   0  0  0  0  0  0  0  0  0  0  0  0
  -17.8762   39.2404  -22.4371 C   0  0  0  0  0  0  0  0  0  0  0  0
  -17.9728   39.4445  -23.7901 C   0  0  0  0  0  0  0  0  0  0  0  0
  -18.3565   40.7142  -24.2555 C   0  0  0  0  0  0  0  0  0  0  0  0
  -18.6345   41.7444  -23.4052 C   0  0  0  0  0  0  0  0  0  0  0  0
  -19.0049   43.0335  -23.8498 N   0  0  0  0  0  0  0  0  0  0  0  0
  -18.6285   43.5238  -25.1663 C   0  0  0  0  0  0  0  0  0  0  0  0
  -19.7802   43.9207  -23.0268 C   0  0  0  0  0  0  0  0  0  0  0  0
  -21.0072   44.3994  -23.7699 C   0  0  1  0  0  0  0  0  0  0  0  0
  -21.8074   45.3132  -22.8715 C   0  0  0  0  0  0  0  0  0  0  0  0
  -21.8047   46.7441  -23.4153 C   0  0  0  0  0  0  0  0  0  0  0  0
  -22.5095   46.7479  -24.7720 C   0  0  2  0  0  0  0  0  0  0  0  0
  -23.9201   46.7162  -24.5293 N   0  0  0  0  0  0  0  0  0  0  0  0
  -24.3386   45.3639  -24.3435 C   0  0  0  0  0  0  0  0  0  0  0  0
  -25.4433   45.1691  -23.3327 C   0  0  0  0  0  0  0  0  0  0  0  0
  -26.4453   46.2144  -23.4220 N   0  0  0  0  0  0  0  0  0  0  0  0
  -27.8721   45.9749  -23.3675 C   0  0  0  0  0  0  0  0  0  0  0  0
  -25.8947   47.5423  -23.5729 C   0  0  0  0  0  0  0  0  0  0  0  0
  -26.6310   48.5168  -23.7431 O   0  0  0  0  0  0  0  0  0  0  0  0
  -24.4060   47.5659  -23.4980 C   0  0  0  0  0  0  0  0  0  0  0  0
  -21.9989   45.6307  -25.6147 C   0  0  0  0  0  0  0  0  0  0  0  0
  -20.6846   45.1492  -25.0327 C   0  0  0  0  0  0  0  0  0  0  0  0
  -18.5303   41.5090  -22.0450 C   0  0  0  0  0  0  0  0  0  0  0  0
  -18.1545   40.2666  -21.5839 C   0  0  0  0  0  0  0  0  0  0  0  0
  -16.0976   37.6823  -21.8227 C   0  0  0  0  0  0  0  0  0  0  0  0
  -15.2595   38.2597  -22.5527 O   0  0  0  0  0  0  0  0  0  0  0  0
  -15.6631   36.7103  -20.7529 C   0  0  0  0  0  0  0  0  0  0  0  0
  1  2  1  0
  2  3  1  0
  3  4  2  0
  4  5  1  0
  5  6  2  0
  6  7  1  0
  7  8  2  0
  8  9  1  0
  9 10  1  0
 10 11  1  0
 10 12  1  0
  6 13  1  0
 13 14  1  6
 14 15  2  0
 15 16  1  0
 16 17  2  0
 17 18  1  0
 17 19  1  0
 19 20  2  0
 13 21  1  0
 21 22  1  0
 22 23  2  0
 23 24  1  0
 24 25  2  0
 25 26  1  0
 26 27  1  0
 26 28  1  0
 29 28  1  1
 29 30  1  0
 30 31  1  0
 31 32  1  0
 32 33  1  1
 33 34  1  0
 34 35  1  0
 35 36  1  0
 36 37  1  0
 36 38  1  0
 38 39  2  0
 38 40  1  0
 32 41  1  0
 41 42  1  0
 25 43  1  0
 43 44  2  0
 21 45  1  0
 45 46  2  0
 45 47  1  0
  8  3  1  0
 20 14  1  0
 44 22  1  0
 47  5  1  0
 42 29  1  0
 40 33  1  0
M  END
$$$$
