
     RDKit          3D

 32 35  0  0  0  0  0  0  0  0999 V2000
  -24.0556   38.2351  -29.4446 C   0  0  0  0  0  0  0  0  0  0  0  0
  -23.5272   37.8508  -28.0903 C   0  0  0  0  0  0  0  0  0  0  0  0
  -22.3305   36.5574  -28.2522 S   0  0  0  0  0  6  0  0  0  0  0  0
  -23.0020   35.2876  -28.6838 O   0  0  0  0  0  0  0  0  0  0  0  0
  -21.2865   36.9387  -29.2865 O   0  0  0  0  0  0  0  0  0  0  0  0
  -21.4896   36.3040  -26.7760 N   0  0  0  0  0  0  0  0  0  0  0  0
  -20.5290   37.2546  -26.3419 C   0  0  0  0  0  0  0  0  0  0  0  0
  -19.9215   38.1805  -27.1501 C   0  0  0  0  0  0  0  0  0  0  0  0
  -18.9965   39.0671  -26.6216 C   0  0  0  0  0  0  0  0  0  0  0  0
  -18.6560   39.0563  -25.2936 C   0  0  0  0  0  0  0  0  0  0  0  0
  -17.7483   39.9015  -24.6950 O   0  0  0  0  0  0  0  0  0  0  0  0
  -17.7750   41.2684  -24.6875 C   0  0  0  0  0  0  0  0  0  0  0  0
  -18.9894   41.9637  -24.6550 C   0  0  0  0  0  0  0  0  0  0  0  0
  -18.9881   43.3364  -24.6476 C   0  0  0  0  0  0  0  0  0  0  0  0
  -17.8022   44.0614  -24.6718 C   0  0  0  0  0  0  0  0  0  0  0  0
  -17.8767   45.4101  -24.6629 F   0  0  0  0  0  0  0  0  0  0  0  0
  -16.6420   43.3542  -24.7030 C   0  0  0  0  0  0  0  0  0  0  0  0
  -16.5870   41.9843  -24.7115 C   0  0  0  0  0  0  0  0  0  0  0  0
  -15.3730   41.3709  -24.7384 F   0  0  0  0  0  0  0  0  0  0  0  0
  -19.2789   38.1142  -24.4889 C   0  0  0  0  0  0  0  0  0  0  0  0
  -18.9536   38.0531  -23.0483 C   0  0  0  0  0  0  0  0  0  0  0  0
  -18.9265   39.1950  -22.2748 C   0  0  0  0  0  0  0  0  0  0  0  0
  -18.6273   39.1102  -20.9659 N   0  0  0  0  0  0  0  0  0  0  0  0
  -18.6131   40.3417  -20.1998 C   0  0  0  0  0  0  0  0  0  0  0  0
  -18.3610   37.9125  -20.4402 C   0  0  0  0  0  0  0  0  0  0  0  0
  -18.0830   37.8515  -19.2140 O   0  0  0  0  0  0  0  0  0  0  0  0
  -18.3744   36.7306  -21.1745 C   0  0  0  0  0  0  0  0  0  0  0  0
  -18.1532   35.4422  -20.9048 N   0  0  0  0  0  0  0  0  0  0  0  0
  -18.2953   34.6667  -21.9913 C   0  0  0  0  0  0  0  0  0  0  0  0
  -18.6295   35.5228  -23.0196 C   0  0  0  0  0  0  0  0  0  0  0  0
  -18.6795   36.8031  -22.5171 C   0  0  0  0  0  0  0  0  0  0  0  0
  -20.1966   37.2299  -24.9969 C   0  0  0  0  0  0  0  0  0  0  0  0
  1  2  1  0
  2  3  1  0
  3  4  2  0
  3  5  2  0
  3  6  1  0
  6  7  1  0
  7  8  2  0
  8  9  1  0
  9 10  2  0
 10 11  1  0
 11 12  1  0
 12 13  2  0
 13 14  1  0
 14 15  2  0
 15 16  1  0
 15 17  1  0
 17 18  2  0
 18 19  1  0
 10 20  1  0
 20 21  1  0
 21 22  2  0
 22 23  1  0
 23 24  1  0
 23 25  1  0
 25 26  2  0
 25 27  1  0
 27 28  1  0
 28 29  1  0
 29 30  2  0
 30 31  1  0
 20 32  2  0
 32  7  1  0
 18 12  1  0
 31 21  1  0
 31 27  2  0
M  END
$$$$
