
     RDKit          3D

 28 29  0  0  0  0  0  0  0  0999 V2000
  -20.9689   -3.3208  -29.2018 C   0  0  0  0  0  0  0  0  0  0  0  0
  -20.4842   -2.4077  -30.2823 C   0  0  0  0  0  0  0  0  0  0  0  0
  -19.2003   -2.7271  -30.7636 O   0  0  0  0  0  0  0  0  0  0  0  0
  -18.4024   -1.8706  -31.4660 C   0  0  0  0  0  0  0  0  0  0  0  0
  -18.9418   -1.1914  -32.3858 O   0  0  0  0  0  0  0  0  0  0  0  0
  -16.9710   -1.7151  -31.1953 C   0  0  0  0  0  0  0  0  0  0  0  0
  -16.2810   -2.2048  -30.1088 C   0  0  0  0  0  0  0  0  0  0  0  0
  -14.9876   -1.8280  -30.2653 N   0  0  0  0  0  0  0  0  0  0  0  0
  -14.8163   -1.1444  -31.3593 N   0  0  0  0  0  0  0  0  0  0  0  0
  -13.6090   -0.5670  -31.8875 C   0  0  0  0  0  0  0  0  0  0  0  0
  -12.8118   -1.2728  -32.7535 C   0  0  0  0  0  0  0  0  0  0  0  0
  -11.6699   -0.7317  -33.2555 C   0  0  0  0  0  0  0  0  0  0  0  0
  -11.3075    0.5440  -32.8896 C   0  0  0  0  0  0  0  0  0  0  0  0
  -10.1013    1.1303  -33.4129 N   0  0  0  0  0  0  0  0  0  0  0  0
   -9.2658    1.8666  -32.5328 C   0  0  0  0  0  0  0  0  0  0  0  0
   -9.8401    2.2530  -31.4500 O   0  0  0  0  0  0  0  0  0  0  0  0
   -7.8864    2.2143  -32.7209 C   0  0  0  0  0  0  0  0  0  0  0  0
   -6.9967    1.1732  -33.8858 Cl  0  0  0  0  0  0  0  0  0  0  0  0
   -7.2232    3.1613  -32.1681 C   0  0  0  0  0  0  0  0  0  0  0  0
   -5.5922    3.5978  -32.5296 Cl  0  0  0  0  0  0  0  0  0  0  0  0
   -8.0160    4.1410  -30.9085 Cl  0  0  0  0  0  0  0  0  0  0  0  0
  -12.0860    1.2811  -32.0212 C   0  0  0  0  0  0  0  0  0  0  0  0
  -13.2386    0.7065  -31.5279 C   0  0  0  0  0  0  0  0  0  0  0  0
  -16.0303   -1.0583  -31.9573 C   0  0  0  0  0  0  0  0  0  0  0  0
  -16.3249   -0.3562  -33.2551 C   0  0  0  0  0  0  0  0  0  0  0  0
  -17.0057   -1.1829  -34.1141 F   0  0  0  0  0  0  0  0  0  0  0  0
  -17.0952    0.7647  -33.0136 F   0  0  0  0  0  0  0  0  0  0  0  0
  -15.1352    0.1031  -33.8354 F   0  0  0  0  0  0  0  0  0  0  0  0
  1  2  1  0
  2  3  1  0
  3  4  1  0
  4  5  2  0
  4  6  1  0
  6  7  1  0
  7  8  2  0
  8  9  1  0
  9 10  1  0
 10 11  2  0
 11 12  1  0
 12 13  2  0
 13 14  1  0
 14 15  1  0
 15 16  2  0
 15 17  1  0
 17 18  1  0
 17 19  2  3
 19 20  1  0
 19 21  1  0
 13 22  1  0
 22 23  2  0
  9 24  1  0
 24 25  1  0
 25 26  1  0
 25 27  1  0
 25 28  1  0
 24  6  2  0
 23 10  1  0
M  END
$$$$
