
     RDKit          3D

 22 24  0  0  0  0  0  0  0  0999 V2000
  -18.6910   40.2357  -18.8994 O   0  0  0  0  0  0  0  0  0  0  0  0
  -18.3739   40.1500  -20.0943 C   0  0  0  0  0  0  0  0  0  0  0  0
  -18.8095   39.0218  -20.8983 C   0  0  0  0  0  0  0  0  0  0  0  0
  -19.7896   37.7797  -20.1621 Cl  0  0  0  0  0  0  0  0  0  0  0  0
  -18.4705   38.9312  -22.1739 C   0  0  0  0  0  0  0  0  0  0  0  0
  -18.9327   37.8018  -22.8938 N   0  0  0  0  0  0  0  0  0  0  0  0
  -18.5433   37.5945  -24.2698 C   0  0  0  0  0  0  0  0  0  0  0  0
  -19.2516   38.5486  -25.2033 C   0  0  0  0  0  0  0  0  0  0  0  0
  -20.4681   37.9828  -25.7322 N   0  0  0  0  0  0  0  0  0  0  0  0
  -21.2766   38.9389  -26.4207 C   0  0  0  0  0  0  0  0  0  0  0  0
  -20.8148   39.0637  -27.8524 C   0  0  0  0  0  0  0  0  0  0  0  0
  -20.9996   37.8992  -28.5553 O   0  0  0  0  0  0  0  0  0  0  0  0
  -21.1303   36.7705  -27.7617 C   0  0  0  0  0  0  0  0  0  0  0  0
  -20.2442   36.8191  -26.5400 C   0  0  0  0  0  0  0  0  0  0  0  0
  -17.6420   39.9816  -22.7954 C   0  0  0  0  0  0  0  0  0  0  0  0
  -17.3316   39.8795  -24.0009 O   0  0  0  0  0  0  0  0  0  0  0  0
  -17.1755   41.1393  -22.0338 C   0  0  0  0  0  0  0  0  0  0  0  0
  -16.4160   42.1073  -22.5936 N   0  0  0  0  0  0  0  0  0  0  0  0
  -15.9870   43.1730  -21.8913 C   0  0  0  0  0  0  0  0  0  0  0  0
  -16.3253   43.2937  -20.5589 C   0  0  0  0  0  0  0  0  0  0  0  0
  -17.1068   42.2990  -19.9802 C   0  0  0  0  0  0  0  0  0  0  0  0
  -17.5428   41.2098  -20.7060 C   0  0  0  0  0  0  0  0  0  0  0  0
  1  2  2  0
  2  3  1  0
  3  4  1  0
  3  5  2  0
  5  6  1  0
  6  7  1  0
  7  8  1  0
  8  9  1  0
  9 10  1  0
 10 11  1  0
 11 12  1  0
 12 13  1  0
 13 14  1  0
  5 15  1  0
 15 16  2  0
 15 17  1  0
 17 18  2  0
 18 19  1  0
 19 20  2  0
 20 21  1  0
 21 22  2  0
 22  2  1  0
 14  9  1  0
 22 17  1  0
M  END
$$$$
