
     RDKit          3D

 15 17  0  0  0  0  0  0  0  0999 V2000
   -4.6494    4.7242  -44.7245 C   0  0  0  0  0  0  0  0  0  0  0  0
   -4.7921    5.6433  -43.8195 N   0  0  0  0  0  0  0  0  0  0  0  0
   -4.1041    5.7771  -42.5755 C   0  0  0  0  0  0  0  0  0  0  0  0
   -4.6868    6.7802  -41.8199 C   0  0  0  0  0  0  0  0  0  0  0  0
   -4.1495    7.0544  -40.5734 C   0  0  0  0  0  0  0  0  0  0  0  0
   -3.0621    6.3577  -40.0790 C   0  0  0  0  0  0  0  0  0  0  0  0
   -2.4758    5.3575  -40.8245 C   0  0  0  0  0  0  0  0  0  0  0  0
   -3.0157    5.0880  -42.0673 C   0  0  0  0  0  0  0  0  0  0  0  0
   -2.3330    4.0651  -42.7057 O   0  0  0  0  0  0  0  0  0  0  0  0
   -2.7519    3.3319  -43.8235 C   0  0  0  0  0  0  0  0  0  0  0  0
   -2.0057    2.1783  -44.0046 C   0  0  0  0  0  0  0  0  0  0  0  0
   -2.2546    1.3111  -45.0499 C   0  0  0  0  0  0  0  0  0  0  0  0
   -3.2640    1.5666  -45.9576 C   0  0  0  0  0  0  0  0  0  0  0  0
   -4.0163    2.7108  -45.7918 C   0  0  0  0  0  0  0  0  0  0  0  0
   -3.7554    3.5679  -44.7420 C   0  0  0  0  0  0  0  0  0  0  0  0
  1  2  2  0
  2  3  1  0
  3  4  2  0
  4  5  1  0
  5  6  2  0
  6  7  1  0
  7  8  2  0
  8  9  1  0
  9 10  1  0
 10 11  2  0
 11 12  1  0
 12 13  2  0
 13 14  1  0
 14 15  2  0
 15  1  1  0
  8  3  1  0
 15 10  1  0
M  END
$$$$
