
     RDKit          3D

 42 48  0  0  0  0  0  0  0  0999 V2000
  -19.2493   40.9440  -25.0810 C   0  0  0  0  0  0  0  0  0  0  0  0
  -19.2388   40.4611  -23.7593 O   0  0  0  0  0  0  0  0  0  0  0  0
  -18.5991   41.2405  -22.7801 C   0  0  0  0  0  0  0  0  0  0  0  0
  -17.9151   42.3890  -23.1274 C   0  0  0  0  0  0  0  0  0  0  0  0
  -17.2670   43.1948  -22.2044 C   0  0  0  0  0  0  0  0  0  0  0  0
  -16.5556   44.4238  -22.5373 C   0  0  2  0  0  0  0  0  0  0  0  0
  -15.5214   44.6952  -21.5111 C   0  0  0  0  0  0  0  0  0  0  0  0
  -14.2576   44.1711  -21.6244 C   0  0  0  0  0  0  0  0  0  0  0  0
  -13.2741   44.4101  -20.6760 C   0  0  0  0  0  0  0  0  0  0  0  0
  -13.5549   45.1840  -19.5975 C   0  0  0  0  0  0  0  0  0  0  0  0
  -14.8129   45.7280  -19.4505 C   0  0  0  0  0  0  0  0  0  0  0  0
  -15.8038   45.4846  -20.4115 C   0  0  0  0  0  0  0  0  0  0  0  0
  -17.1079   46.1373  -20.1593 C   0  0  1  0  0  0  0  0  0  0  0  0
  -17.0115   47.5256  -20.0455 O   0  0  0  0  0  0  0  0  0  0  0  0
  -17.0094   47.9765  -18.7375 C   0  0  2  0  0  0  0  0  0  0  0  0
  -18.3182   48.0054  -18.2081 O   0  0  0  0  0  0  0  0  0  0  0  0
  -18.2012   48.5581  -16.9592 C   0  0  2  0  0  0  0  0  0  0  0  0
  -19.3541   48.3191  -16.0285 C   0  0  0  0  0  0  0  0  0  0  0  0
  -18.9817   48.9324  -14.8083 O   0  0  0  0  0  0  0  0  0  0  0  0
  -18.8089   50.2779  -15.0168 C   0  0  1  0  0  0  0  0  0  0  0  0
  -18.4519   50.9507  -13.7059 C   0  0  0  0  0  0  0  0  0  0  0  0
  -17.7992   50.5979  -15.9287 O   0  0  0  0  0  0  0  0  0  0  0  0
  -18.1242   50.0725  -17.1534 C   0  0  1  0  0  0  0  0  0  0  0  0
  -17.0879   50.4389  -18.1657 C   0  0  2  0  0  0  0  0  0  0  0  0
  -17.7441   50.9575  -19.2864 O   0  0  0  0  0  0  0  0  0  0  0  0
  -16.2755   49.2527  -18.6119 C   0  0  1  0  0  0  0  0  0  0  0  0
  -15.2584   49.0983  -17.6440 O   0  0  0  0  0  0  0  0  0  0  0  0
  -18.1404   45.7771  -21.2135 C   0  0  1  0  0  0  0  0  0  0  0  0
  -19.0662   46.9173  -21.5685 C   0  0  0  0  0  0  0  0  0  0  0  0
  -19.3790   46.6546  -22.9471 O   0  0  0  0  0  0  0  0  0  0  0  0
  -18.3433   45.9127  -23.5385 C   0  0  0  0  0  0  0  0  0  0  0  0
  -18.3223   45.5652  -24.7451 O   0  0  0  0  0  0  0  0  0  0  0  0
  -17.3828   45.6632  -22.5111 C   0  0  2  0  0  0  0  0  0  0  0  0
  -12.4029   45.2601  -18.8124 O   0  0  0  0  0  0  0  0  0  0  0  0
  -11.4372   44.3524  -19.2974 C   0  0  0  0  0  0  0  0  0  0  0  0
  -11.9560   44.0059  -20.5656 O   0  0  0  0  0  0  0  0  0  0  0  0
  -17.3429   42.7792  -20.8953 C   0  0  0  0  0  0  0  0  0  0  0  0
  -18.0317   41.6152  -20.5135 C   0  0  0  0  0  0  0  0  0  0  0  0
  -18.1121   41.1914  -19.1972 O   0  0  0  0  0  0  0  0  0  0  0  0
  -17.8023   41.9237  -18.0582 C   0  0  0  0  0  0  0  0  0  0  0  0
  -18.6562   40.8526  -21.4601 C   0  0  0  0  0  0  0  0  0  0  0  0
  -19.3556   39.6835  -21.1279 O   0  0  0  0  0  0  0  0  0  0  0  0
  1  2  1  0
  2  3  1  0
  3  4  2  0
  4  5  1  0
  6  5  1  1
  6  7  1  0
  7  8  2  0
  8  9  1  0
  9 10  2  0
 10 11  1  0
 11 12  2  0
 12 13  1  0
 13 14  1  6
 15 14  1  6
 15 16  1  0
 16 17  1  0
 17 18  1  1
 18 19  1  0
 19 20  1  0
 20 21  1  1
 20 22  1  0
 23 22  1  1
 23 24  1  0
 24 25  1  6
 24 26  1  0
 26 27  1  1
 13 28  1  0
 28 29  1  6
 29 30  1  0
 30 31  1  0
 31 32  2  0
 33 31  1  6
 10 34  1  0
 34 35  1  0
 35 36  1  0
  5 37  2  0
 37 38  1  0
 38 39  1  0
 39 40  1  0
 38 41  2  0
 41 42  1  0
 41  3  1  0
 33  6  1  0
 12  7  1  0
 26 15  1  0
 33 28  1  0
 36  9  1  0
 23 17  1  0
M  END
$$$$
