
     RDKit          3D

 24 28  0  0  0  0  0  0  0  0999 V2000
  -19.7608   40.2336  -23.4084 O   0  0  0  0  0  0  0  0  0  0  0  0
  -19.7845   40.1329  -22.1334 C   0  0  0  0  0  0  0  0  0  0  0  0
  -19.7927   41.3637  -21.3420 C   0  0  0  0  0  0  0  0  0  0  0  0
  -18.4669   41.7422  -20.8700 N   0  0  0  0  0  0  0  0  0  0  0  0
  -17.7213   41.1307  -19.4294 S   0  0  0  0  0  0  0  0  0  0  0  0
  -16.1894   42.0643  -19.5659 C   0  0  0  0  0  0  0  0  0  0  0  0
  -15.0405   42.1422  -18.7921 C   0  0  0  0  0  0  0  0  0  0  0  0
  -14.0160   42.9812  -19.1932 C   0  0  0  0  0  0  0  0  0  0  0  0
  -14.1804   43.7034  -20.3440 C   0  0  0  0  0  0  0  0  0  0  0  0
  -15.3248   43.6008  -21.0769 C   0  0  0  0  0  0  0  0  0  0  0  0
  -16.4088   42.7624  -20.7216 C   0  0  0  0  0  0  0  0  0  0  0  0
  -17.5877   42.5642  -21.3530 C   0  0  0  0  0  0  0  0  0  0  0  0
  -17.8761   43.1901  -22.4622 O   0  0  0  0  0  0  0  0  0  0  0  0
  -19.7993   38.8111  -21.6183 N   0  0  0  0  0  0  0  0  0  0  0  0
  -19.3709   37.6630  -22.3864 C   0  0  0  0  0  0  0  0  0  0  0  0
  -19.9307   37.5906  -23.7697 C   0  0  0  0  0  0  0  0  0  0  0  0
  -19.3640   36.3659  -24.4401 C   0  0  0  0  0  0  0  0  0  0  0  0
  -17.8633   36.4527  -24.6050 C   0  0  0  0  0  0  0  0  0  0  0  0
  -17.2549   36.6039  -23.2359 C   0  0  0  0  0  0  0  0  0  0  0  0
  -17.5840   35.3865  -22.4025 C   0  0  0  0  0  0  0  0  0  0  0  0
  -19.0656   35.1905  -22.3174 C   0  0  0  0  0  0  0  0  0  0  0  0
  -19.6756   35.0830  -23.7157 C   0  0  0  0  0  0  0  0  0  0  0  0
  -19.6773   36.3879  -21.6343 C   0  0  0  0  0  0  0  0  0  0  0  0
  -17.8497   37.8047  -22.5641 C   0  0  0  0  0  0  0  0  0  0  0  0
  1  2  2  0
  2  3  1  0
  3  4  1  0
  4  5  1  0
  5  6  1  0
  6  7  2  0
  7  8  1  0
  8  9  2  0
  9 10  1  0
 10 11  2  0
 11 12  1  0
 12 13  2  0
  2 14  1  0
 14 15  1  0
 15 16  1  0
 16 17  1  0
 17 18  1  0
 18 19  1  0
 19 20  1  0
 20 21  1  0
 21 22  1  0
 21 23  1  0
 19 24  1  0
 12  4  1  0
 23 15  1  0
 11  6  1  0
 24 15  1  0
 22 17  1  0
M  END
$$$$
