
     RDKit          3D

 23 27  0  0  0  0  0  0  0  0999 V2000
  -17.6667   40.5954  -19.0910 O   0  0  0  0  0  0  0  0  0  0  0  0
  -17.6840   39.9133  -20.1432 C   0  0  0  0  0  0  0  0  0  0  0  0
  -17.7008   38.5298  -19.9728 O   0  0  0  0  0  0  0  0  0  0  0  0
  -17.6850   40.5714  -21.4839 C   0  0  0  0  0  0  0  0  0  0  0  0
  -19.0306   40.5247  -22.1179 C   0  0  0  0  0  0  0  0  0  0  0  0
  -19.2121   39.0961  -22.6785 C   0  0  0  0  0  0  0  0  0  0  0  0
  -18.1617   39.1275  -23.7337 C   0  0  0  0  0  0  0  0  0  0  0  0
  -18.0306   40.3710  -24.1886 C   0  0  0  0  0  0  0  0  0  0  0  0
  -18.9969   41.2594  -23.4570 C   0  0  0  0  0  0  0  0  0  0  0  0
  -18.5253   42.6329  -23.2887 C   0  0  0  0  0  0  0  0  0  0  0  0
  -18.9632   43.5994  -24.1306 C   0  0  0  0  0  0  0  0  0  0  0  0
  -18.5579   44.9033  -24.0148 C   0  0  0  0  0  0  0  0  0  0  0  0
  -19.1379   46.1273  -25.1128 Cl  0  0  0  0  0  0  0  0  0  0  0  0
  -17.6868   45.2296  -23.0186 C   0  0  0  0  0  0  0  0  0  0  0  0
  -17.2355   44.2687  -22.1618 C   0  0  0  0  0  0  0  0  0  0  0  0
  -17.6455   42.9312  -22.2735 C   0  0  0  0  0  0  0  0  0  0  0  0
  -17.1813   41.9121  -21.3974 N   0  0  0  0  0  0  0  0  0  0  0  0
  -16.1434   42.2467  -20.3904 C   0  0  0  0  0  0  0  0  0  0  0  0
  -15.3449   43.3467  -21.0312 C   0  0  0  0  0  0  0  0  0  0  0  0
  -14.2430   43.9253  -20.2142 C   0  0  0  0  0  0  0  0  0  0  0  0
  -14.1408   45.2727  -20.8429 C   0  0  0  0  0  0  0  0  0  0  0  0
  -15.3208   45.6327  -21.3364 C   0  0  0  0  0  0  0  0  0  0  0  0
  -16.2991   44.5586  -21.0767 C   0  0  0  0  0  0  0  0  0  0  0  0
  1  2  2  0
  2  3  1  0
  2  4  1  0
  4  5  1  0
  5  6  1  0
  6  7  1  0
  7  8  2  0
  8  9  1  0
  9 10  1  0
 10 11  2  0
 11 12  1  0
 12 13  1  0
 12 14  2  0
 14 15  1  0
 15 16  2  0
 16 17  1  0
 17 18  1  0
 18 19  1  0
 19 20  1  0
 20 21  1  0
 21 22  2  0
 22 23  1  0
 17  4  1  0
 23 19  1  0
  9  5  1  0
 16 10  1  0
 23 15  1  0
M  END
$$$$
