
     RDKit          3D

 34 37  0  0  0  0  0  0  0  0999 V2000
  -17.8454   42.0116  -17.1570 O   0  0  0  0  0  0  0  0  0  0  0  0
  -16.9722   41.5616  -17.9180 C   0  0  0  0  0  0  0  0  0  0  0  0
  -17.3536   40.7495  -19.0189 N   0  0  0  0  0  0  0  0  0  0  0  0
  -18.7317   40.2820  -19.1380 C   0  0  0  0  0  0  0  0  0  0  0  0
  -18.8525   39.3697  -20.3148 C   0  0  0  0  0  0  0  0  0  0  0  0
  -20.2484   38.7455  -20.2805 C   0  0  0  0  0  0  0  0  0  0  0  0
  -20.1167   37.3170  -20.2912 N   0  0  0  0  0  0  0  0  0  0  0  0
  -19.7843   36.6158  -21.4722 C   0  0  0  0  0  0  0  0  0  0  0  0
  -19.4036   37.1989  -22.6266 N   0  0  0  0  0  0  0  0  0  0  0  0
  -19.0944   36.5411  -23.7294 C   0  0  0  0  0  0  0  0  0  0  0  0
  -18.6867   37.0837  -24.9722 N   0  0  0  0  0  0  0  0  0  0  0  0
  -18.5851   38.5081  -25.0272 C   0  0  0  0  0  0  0  0  0  0  0  0
  -17.9588   39.2565  -24.0904 C   0  0  0  0  0  0  0  0  0  0  0  0
  -17.8681   40.6219  -24.2816 C   0  0  0  0  0  0  0  0  0  0  0  0
  -18.4077   41.1898  -25.4061 C   0  0  0  0  0  0  0  0  0  0  0  0
  -19.0618   40.4426  -26.3937 C   0  0  0  0  0  0  0  0  0  0  0  0
  -19.5263   41.1193  -27.5233 N   0  0  0  0  0  0  0  0  0  0  0  0
  -19.5086   42.5208  -27.7047 C   0  0  0  0  0  0  0  0  0  0  0  0
  -19.0856   43.2763  -26.8110 O   0  0  0  0  0  0  0  0  0  0  0  0
  -19.9826   43.1015  -28.9225 N   0  0  0  0  0  0  0  0  0  0  0  0
  -20.5824   42.4103  -30.0185 C   0  0  0  0  0  0  0  0  0  0  0  0
  -21.0547   43.4547  -30.9902 C   0  0  0  0  0  0  0  0  0  0  0  0
  -21.1481   44.7044  -30.1514 C   0  0  0  0  0  0  0  0  0  0  0  0
  -19.9422   44.5234  -29.2293 C   0  0  0  0  0  0  0  0  0  0  0  0
  -19.1328   39.1069  -26.1703 C   0  0  0  0  0  0  0  0  0  0  0  0
  -19.1653   35.1717  -23.6933 N   0  0  0  0  0  0  0  0  0  0  0  0
  -19.5311   34.5063  -22.5935 C   0  0  0  0  0  0  0  0  0  0  0  0
  -19.8468   35.2136  -21.4687 C   0  0  0  0  0  0  0  0  0  0  0  0
  -20.4302   34.1848  -19.6989 I   0  0  0  0  0  0  0  0  0  0  0  0
  -15.5869   41.8383  -17.7136 C   0  0  0  0  0  0  0  0  0  0  0  0
  -14.4635   41.5576  -18.4394 C   0  0  0  0  0  0  0  0  0  0  0  0
  -13.2686   41.9521  -18.0083 C   0  0  0  0  0  0  0  0  0  0  0  0
  -13.2149   42.6564  -16.7975 C   0  0  0  0  0  0  0  0  0  0  0  0
  -14.9226   42.7418  -16.2837 S   0  0  0  0  0  0  0  0  0  0  0  0
  1  2  2  0
  2  3  1  0
  3  4  1  0
  4  5  1  0
  5  6  1  0
  6  7  1  0
  7  8  1  0
  8  9  2  0
  9 10  1  0
 10 11  1  0
 11 12  1  0
 12 13  2  0
 13 14  1  0
 14 15  2  0
 15 16  1  0
 16 17  1  0
 17 18  1  0
 18 19  2  0
 18 20  1  0
 20 21  1  0
 21 22  1  0
 22 23  1  0
 23 24  1  0
 16 25  2  0
 10 26  2  0
 26 27  1  0
 27 28  2  0
 28 29  1  0
  2 30  1  0
 30 31  2  0
 31 32  1  0
 32 33  2  0
 33 34  1  0
 28  8  1  0
 34 30  1  0
 25 12  1  0
 24 20  1  0
M  END
$$$$
