
     RDKit          3D

 25 28  0  0  0  0  0  0  0  0999 V2000
  -18.3865   41.1688  -23.5957 C   0  0  0  0  0  0  0  0  0  0  0  0
  -18.7038   41.2748  -22.1299 C   0  0  2  0  0  0  0  0  0  0  0  0
  -20.0308   41.8496  -21.8074 C   0  0  0  0  0  0  0  0  0  0  0  0
  -20.0940   43.1539  -21.1227 C   0  0  2  0  0  0  0  0  0  0  0  0
  -21.3302   43.7421  -21.4957 O   0  0  0  0  0  0  0  0  0  0  0  0
  -19.0174   44.1341  -21.3536 C   0  0  1  0  0  0  0  0  0  0  0  0
  -17.7912   43.5035  -22.0450 C   0  0  1  0  0  0  0  0  0  0  0  0
  -16.6415   44.4415  -21.7830 C   0  0  0  0  0  0  0  0  0  0  0  0
  -16.8936   45.6618  -22.6785 C   0  0  0  0  0  0  0  0  0  0  0  0
  -18.2640   46.1878  -22.4750 C   0  0  0  0  0  0  0  0  0  0  0  0
  -18.4271   47.4876  -22.7507 C   0  0  0  0  0  0  0  0  0  0  0  0
  -19.7330   48.0738  -22.5770 C   0  0  0  0  0  0  0  0  0  0  0  0
  -20.1436   49.0187  -23.2876 O   0  0  0  0  0  0  0  0  0  0  0  0
  -20.6382   47.5529  -21.5237 C   0  0  0  0  0  0  0  0  0  0  0  0
  -20.1071   46.2683  -20.9312 C   0  0  0  0  0  0  0  0  0  0  0  0
  -19.4195   45.4203  -22.0119 C   0  0  2  0  0  0  0  0  0  0  0  0
  -20.3769   45.2444  -23.1547 C   0  0  0  0  0  0  0  0  0  0  0  0
  -17.6850   42.1863  -21.4215 C   0  0  2  0  0  0  0  0  0  0  0  0
  -16.4504   41.4110  -21.5320 C   0  0  0  0  0  0  0  0  0  0  0  0
  -16.9542   40.0646  -20.9761 C   0  0  0  0  0  0  0  0  0  0  0  0
  -18.3983   39.9602  -21.4950 C   0  0  2  0  0  0  0  0  0  0  0  0
  -18.4842   38.7817  -22.3653 C   0  0  0  0  0  0  0  0  0  0  0  0
  -17.5182   38.4574  -23.0830 O   0  0  0  0  0  0  0  0  0  0  0  0
  -19.6381   37.8681  -22.5131 C   0  0  0  0  0  0  0  0  0  0  0  0
  -19.3733   36.5387  -22.3615 O   0  0  0  0  0  0  0  0  0  0  0  0
  2  1  1  6
  2  3  1  0
  3  4  1  0
  4  5  1  6
  6  4  1  6
  6  7  1  0
  7  8  1  1
  8  9  1  0
  9 10  1  0
 10 11  2  0
 11 12  1  0
 12 13  2  0
 12 14  1  0
 14 15  1  0
 15 16  1  0
 16 17  1  6
  7 18  1  0
 18 19  1  6
 19 20  1  0
 20 21  1  0
 21 22  1  6
 22 23  2  0
 22 24  1  0
 24 25  1  0
 18  2  1  0
 21  2  1  0
 16  6  1  0
 16 10  1  0
M  END
$$$$
