
     RDKit          3D

 38 42  0  0  0  0  0  0  0  0999 V2000
  -20.9843   23.2230  -40.2411 C   0  0  0  0  0  0  0  0  0  0  0  0
  -19.8935   22.5280  -39.9693 C   0  0  0  0  0  0  0  0  0  0  0  0
  -20.0405   21.1002  -39.6625 C   0  0  0  0  0  0  0  0  0  0  0  0
  -21.1768   20.5891  -39.7352 O   0  0  0  0  0  0  0  0  0  0  0  0
  -18.9173   20.3046  -39.2888 N   0  0  0  0  0  0  0  0  0  0  0  0
  -18.9966   18.9420  -38.9310 C   0  0  0  0  0  0  0  0  0  0  0  0
  -18.8929   18.5003  -37.5967 C   0  0  0  0  0  0  0  0  0  0  0  0
  -18.9313   17.1599  -37.2980 C   0  0  0  0  0  0  0  0  0  0  0  0
  -18.6751   16.7170  -35.9781 N   0  0  0  0  0  0  0  0  0  0  0  0
  -19.8326   16.4349  -35.2611 C   0  0  0  0  0  0  0  0  0  0  0  0
  -20.9099   16.4595  -35.8601 O   0  0  0  0  0  0  0  0  0  0  0  0
  -19.8500   16.1329  -33.9306 C   0  0  0  0  0  0  0  0  0  0  0  0
  -18.6844   16.1010  -33.2526 C   0  0  0  0  0  0  0  0  0  0  0  0
  -17.5310   16.3694  -33.9228 C   0  0  0  0  0  0  0  0  0  0  0  0
  -16.3299   16.3682  -33.2774 C   0  0  0  0  0  0  0  0  0  0  0  0
  -15.1783   16.6244  -33.8391 N   0  0  0  0  0  0  0  0  0  0  0  0
  -15.1641   16.9125  -35.1772 C   0  0  0  0  0  0  0  0  0  0  0  0
  -13.9396   17.1231  -35.7875 C   0  0  0  0  0  0  0  0  0  0  0  0
  -13.8987   17.3522  -37.1341 C   0  0  0  0  0  0  0  0  0  0  0  0
  -15.0344   17.3779  -37.8967 C   0  0  0  0  0  0  0  0  0  0  0  0
  -14.8905   17.5684  -39.3308 C   0  0  0  0  0  0  0  0  0  0  0  0
  -13.7657   17.2530  -40.0416 C   0  0  0  0  0  0  0  0  0  0  0  0
  -13.6624   17.4935  -41.4163 C   0  0  0  0  0  0  0  0  0  0  0  0
  -14.7361   18.0695  -42.0686 C   0  0  0  0  0  0  0  0  0  0  0  0
  -14.5467   18.3096  -43.4699 N   0  0  0  0  0  0  0  0  0  0  0  0
  -13.3790   19.4698  -44.0166 S   0  0  0  0  0  6  0  0  0  0  0  0
  -13.7390   21.0602  -43.2770 C   0  0  0  0  0  0  0  0  0  0  0  0
  -11.9965   19.0118  -43.6646 O   0  0  0  0  0  0  0  0  0  0  0  0
  -13.4744   19.6097  -45.5062 O   0  0  0  0  0  0  0  0  0  0  0  0
  -15.8626   18.3909  -41.3895 C   0  0  0  0  0  0  0  0  0  0  0  0
  -15.9552   18.1453  -40.0161 C   0  0  0  0  0  0  0  0  0  0  0  0
  -16.2616   17.1709  -37.2821 C   0  0  0  0  0  0  0  0  0  0  0  0
  -16.3246   16.9425  -35.9258 C   0  0  0  0  0  0  0  0  0  0  0  0
  -17.5355   16.6780  -35.3098 C   0  0  0  0  0  0  0  0  0  0  0  0
  -19.0735   16.2329  -38.3238 C   0  0  0  0  0  0  0  0  0  0  0  0
  -19.1716   16.6612  -39.5918 C   0  0  0  0  0  0  0  0  0  0  0  0
  -19.1378   17.9951  -39.9284 C   0  0  0  0  0  0  0  0  0  0  0  0
  -19.2290   18.3764  -41.3774 C   0  0  0  0  0  0  0  0  0  0  0  0
  1  2  2  0
  2  3  1  0
  3  4  2  0
  3  5  1  0
  5  6  1  0
  6  7  2  0
  7  8  1  0
  8  9  1  0
  9 10  1  0
 10 11  2  0
 10 12  1  0
 12 13  2  0
 13 14  1  0
 14 15  2  0
 15 16  1  0
 16 17  2  0
 17 18  1  0
 18 19  2  0
 19 20  1  0
 20 21  1  0
 21 22  2  0
 22 23  1  0
 23 24  2  0
 24 25  1  0
 25 26  1  0
 26 27  1  0
 26 28  2  0
 26 29  2  0
 24 30  1  0
 30 31  2  0
 20 32  2  0
 32 33  1  0
 33 34  2  0
  8 35  2  0
 35 36  1  0
 36 37  2  0
 37 38  1  0
 37  6  1  0
 34  9  1  0
 34 14  1  0
 33 17  1  0
 31 21  1  0
M  END
$$$$
