
     RDKit          3D

 19 22  0  0  0  0  0  0  0  0999 V2000
  -20.0396   13.5777  -31.5405 N   0  0  0  0  0  0  0  0  0  0  0  0
  -18.9342   14.3334  -32.0078 C   0  0  0  0  0  0  0  0  0  0  0  0
  -17.6522   13.9603  -31.5890 C   0  0  0  0  0  0  0  0  0  0  0  0
  -16.5377   14.6230  -31.9838 C   0  0  0  0  0  0  0  0  0  0  0  0
  -15.3009   14.2209  -31.5473 C   0  0  0  0  0  0  0  0  0  0  0  0
  -15.1560   13.1440  -30.7044 C   0  0  0  0  0  0  0  0  0  0  0  0
  -13.8640   12.7995  -30.3065 C   0  0  0  0  0  0  0  0  0  0  0  0
  -12.7437   13.4873  -30.7201 C   0  0  0  0  0  0  0  0  0  0  0  0
  -12.8929   14.5504  -31.5528 C   0  0  0  0  0  0  0  0  0  0  0  0
  -14.1774   14.9034  -31.9564 C   0  0  0  0  0  0  0  0  0  0  0  0
  -14.3141   15.9709  -32.7912 C   0  0  0  0  0  0  0  0  0  0  0  0
  -15.5491   16.4167  -33.2612 C   0  0  0  0  0  0  0  0  0  0  0  0
  -16.6610   15.7282  -32.8463 C   0  0  0  0  0  0  0  0  0  0  0  0
  -17.9298   16.1173  -33.2760 C   0  0  0  0  0  0  0  0  0  0  0  0
  -18.0967   17.1868  -34.1155 C   0  0  0  0  0  0  0  0  0  0  0  0
  -19.3726   17.5459  -34.5229 C   0  0  0  0  0  0  0  0  0  0  0  0
  -20.4852   16.8706  -34.1182 C   0  0  0  0  0  0  0  0  0  0  0  0
  -20.3057   15.8040  -33.2796 C   0  0  0  0  0  0  0  0  0  0  0  0
  -19.0465   15.3976  -32.8376 C   0  0  0  0  0  0  0  0  0  0  0  0
  1  2  1  0
  2  3  2  0
  3  4  1  0
  4  5  2  0
  5  6  1  0
  6  7  2  0
  7  8  1  0
  8  9  2  0
  9 10  1  0
 10 11  2  0
 11 12  1  0
 12 13  2  0
 13 14  1  0
 14 15  2  0
 15 16  1  0
 16 17  2  0
 17 18  1  0
 18 19  2  0
 19  2  1  0
 13  4  1  0
 19 14  1  0
 10  5  1  0
M  END
$$$$
