
     RDKit          3D

 32 35  0  0  0  0  0  0  0  0999 V2000
  -17.2892   19.0101  -43.2648 O   0  0  0  0  0  0  0  0  0  0  0  0
  -17.2876   20.1068  -42.6590 C   0  0  0  0  0  0  0  0  0  0  0  0
  -16.4815   20.2964  -41.4326 C   0  0  0  0  0  0  0  0  0  0  0  0
  -15.6022   19.1014  -41.2499 C   0  0  0  0  0  0  0  0  0  0  0  0
  -14.5736   19.0050  -42.2371 N   0  0  0  0  0  0  0  0  0  0  0  0
  -13.3546   19.6179  -41.7386 C   0  0  0  0  0  0  0  0  0  0  0  0
  -12.1106   19.0933  -42.3729 C   0  0  0  0  0  0  0  0  0  0  0  0
  -12.0434   17.6489  -42.3855 N   0  0  0  0  0  0  0  0  0  0  0  0
  -10.8339   16.9820  -42.6378 C   0  0  0  0  0  0  0  0  0  0  0  0
  -10.7823   15.7384  -42.4953 O   0  0  0  0  0  0  0  0  0  0  0  0
   -9.7474   17.7165  -43.0331 O   0  0  0  0  0  0  0  0  0  0  0  0
   -9.4425   18.0234  -44.3463 C   0  0  0  0  0  0  0  0  0  0  0  0
   -8.6804   17.0177  -45.0954 C   0  0  0  0  0  0  0  0  0  0  0  0
   -7.3788   17.3554  -45.4913 C   0  0  0  0  0  0  0  0  0  0  0  0
   -6.5944   16.4858  -46.2125 C   0  0  0  0  0  0  0  0  0  0  0  0
   -4.9648   16.8661  -46.7267 Cl  0  0  0  0  0  0  0  0  0  0  0  0
   -7.0917   15.2347  -46.5661 C   0  0  0  0  0  0  0  0  0  0  0  0
   -8.3729   14.8798  -46.1869 C   0  0  0  0  0  0  0  0  0  0  0  0
   -9.0236   13.3165  -46.6184 Cl  0  0  0  0  0  0  0  0  0  0  0  0
   -9.1556   15.7827  -45.4517 C   0  0  0  0  0  0  0  0  0  0  0  0
  -13.2560   16.9314  -42.1367 C   0  0  0  0  0  0  0  0  0  0  0  0
  -14.3602   17.7453  -42.8403 C   0  0  0  0  0  0  0  0  0  0  0  0
  -18.0968   21.2289  -43.1686 C   0  0  0  0  0  0  0  0  0  0  0  0
  -18.1998   21.4709  -44.5255 C   0  0  0  0  0  0  0  0  0  0  0  0
  -18.9474   22.5040  -45.0399 C   0  0  0  0  0  0  0  0  0  0  0  0
  -19.6271   23.3401  -44.1775 C   0  0  0  0  0  0  0  0  0  0  0  0
  -20.4237   24.4090  -44.3222 N   0  0  0  0  0  0  0  0  0  0  0  0
  -20.8224   24.8451  -43.1157 C   0  0  0  0  0  0  0  0  0  0  0  0
  -21.5840   25.8409  -42.9147 O   0  0  0  0  0  0  0  0  0  0  0  0
  -20.2734   24.0484  -42.2400 O   0  0  0  0  0  0  0  0  0  0  0  0
  -19.5377   23.1151  -42.8063 C   0  0  0  0  0  0  0  0  0  0  0  0
  -18.7769   22.0665  -42.3149 C   0  0  0  0  0  0  0  0  0  0  0  0
  1  2  2  0
  2  3  1  0
  3  4  1  0
  4  5  1  0
  5  6  1  0
  6  7  1  0
  7  8  1  0
  8  9  1  0
  9 10  2  0
  9 11  1  0
 11 12  1  0
 12 13  1  0
 13 14  2  0
 14 15  1  0
 15 16  1  0
 15 17  2  0
 17 18  1  0
 18 19  1  0
 18 20  2  0
  8 21  1  0
 21 22  1  0
  2 23  1  0
 23 24  2  0
 24 25  1  0
 25 26  2  0
 26 27  1  0
 27 28  1  0
 28 29  2  0
 28 30  1  0
 30 31  1  0
 31 32  2  0
 22  5  1  0
 32 23  1  0
 20 13  1  0
 31 26  1  0
M  END
$$$$
