
     RDKit          3D

 18 19  0  0  0  0  0  0  0  0999 V2000
  -20.6216   31.6387  -21.9687 O   0  0  0  0  0  0  0  0  0  0  0  0
  -19.2855   32.2155  -22.1210 B   0  0  0  0  0  0  0  0  0  0  0  0
  -18.1761   31.2766  -22.2534 O   0  0  0  0  0  0  0  0  0  0  0  0
  -19.1358   33.7488  -22.2805 C   0  0  0  0  0  0  0  0  0  0  0  0
  -17.9477   34.3352  -22.7206 C   0  0  0  0  0  0  0  0  0  0  0  0
  -17.8109   35.7056  -22.8653 C   0  0  0  0  0  0  0  0  0  0  0  0
  -18.8595   36.5241  -22.5736 C   0  0  0  0  0  0  0  0  0  0  0  0
  -18.7910   37.9884  -22.6990 C   0  0  0  0  0  0  0  0  0  0  0  0
  -18.1938   38.6024  -23.7649 C   0  0  0  0  0  0  0  0  0  0  0  0
  -18.1454   39.9742  -23.8537 C   0  0  0  0  0  0  0  0  0  0  0  0
  -18.6917   40.8000  -22.8810 C   0  0  0  0  0  0  0  0  0  0  0  0
  -18.6165   42.3589  -23.0168 B   0  0  0  0  0  0  0  0  0  0  0  0
  -18.5954   43.1129  -21.7505 O   0  0  0  0  0  0  0  0  0  0  0  0
  -17.7553   42.9008  -24.0748 O   0  0  0  0  0  0  0  0  0  0  0  0
  -19.2913   40.1762  -21.8104 C   0  0  0  0  0  0  0  0  0  0  0  0
  -19.3376   38.8005  -21.7249 C   0  0  0  0  0  0  0  0  0  0  0  0
  -20.0337   35.9551  -22.1402 C   0  0  0  0  0  0  0  0  0  0  0  0
  -20.1978   34.5908  -21.9866 C   0  0  0  0  0  0  0  0  0  0  0  0
  1  2  1  0
  2  3  1  0
  2  4  1  0
  4  5  2  0
  5  6  1  0
  6  7  2  0
  7  8  1  0
  8  9  2  0
  9 10  1  0
 10 11  2  0
 11 12  1  0
 12 13  1  0
 12 14  1  0
 11 15  1  0
 15 16  2  0
  7 17  1  0
 17 18  2  0
 18  4  1  0
 16  8  1  0
M  END
$$$$
