
     RDKit          3D

 18 19  0  0  0  0  0  0  0  0999 V2000
  -15.0449   43.3452  -20.5300 C   0  0  0  0  0  0  0  0  0  0  0  0
  -15.8571   42.7638  -21.6592 C   0  0  0  0  0  0  0  0  0  0  0  0
  -16.2793   41.4397  -21.4053 O   0  0  0  0  0  0  0  0  0  0  0  0
  -17.3101   40.8157  -22.0479 C   0  0  0  0  0  0  0  0  0  0  0  0
  -17.3822   40.8688  -23.2870 O   0  0  0  0  0  0  0  0  0  0  0  0
  -18.3608   40.0669  -21.3126 C   0  0  0  0  0  0  0  0  0  0  0  0
  -18.8116   40.3975  -20.0517 C   0  0  0  0  0  0  0  0  0  0  0  0
  -19.7456   39.5249  -19.6919 N   0  0  0  0  0  0  0  0  0  0  0  0
  -19.8912   38.6560  -20.6960 C   0  0  0  0  0  0  0  0  0  0  0  0
  -19.0404   38.9866  -21.6957 N   0  0  0  0  0  0  0  0  0  0  0  0
  -18.9352   38.2579  -22.9346 C   0  0  2  0  0  0  0  0  0  0  0  0
  -20.2928   38.2690  -23.6530 C   0  0  0  0  0  0  0  0  0  0  0  0
  -18.6094   36.8146  -22.6937 C   0  0  0  0  0  0  0  0  0  0  0  0
  -19.5472   35.8337  -22.5255 C   0  0  0  0  0  0  0  0  0  0  0  0
  -19.1593   34.5098  -22.3050 C   0  0  0  0  0  0  0  0  0  0  0  0
  -17.8318   34.1425  -22.2486 C   0  0  0  0  0  0  0  0  0  0  0  0
  -16.8901   35.1343  -22.4186 C   0  0  0  0  0  0  0  0  0  0  0  0
  -17.2770   36.4524  -22.6382 C   0  0  0  0  0  0  0  0  0  0  0  0
  1  2  1  0
  2  3  1  0
  3  4  1  0
  4  5  2  0
  4  6  1  0
  6  7  2  0
  7  8  1  0
  8  9  2  0
  9 10  1  0
 10 11  1  0
 11 12  1  1
 11 13  1  0
 13 14  2  0
 14 15  1  0
 15 16  2  0
 16 17  1  0
 17 18  2  0
 10  6  1  0
 18 13  1  0
M  END
$$$$
