
     RDKit          3D

 27 30  0  0  0  0  0  0  0  0999 V2000
  -16.2782   21.8234  -35.2668 N   0  0  0  0  0  0  0  0  0  0  0  0
  -16.0523   20.6016  -34.6063 C   0  0  0  0  0  0  0  0  0  0  0  0
  -15.3646   19.6332  -34.9907 N   0  0  0  0  0  0  0  0  0  0  0  0
  -15.0650   18.3692  -34.4282 C   0  0  1  0  0  0  0  0  0  0  0  0
  -15.8767   17.3503  -35.1758 C   0  0  0  0  0  0  0  0  0  0  0  0
  -16.8559   17.8196  -36.0527 C   0  0  0  0  0  0  0  0  0  0  0  0
  -17.6612   16.9821  -36.7952 C   0  0  0  0  0  0  0  0  0  0  0  0
  -18.6669   17.3684  -37.6975 N   0  0  0  0  0  0  0  0  0  0  0  0
  -18.6363   18.4629  -38.5741 C   0  0  0  0  0  0  0  0  0  0  0  0
  -17.5893   19.0867  -38.7730 O   0  0  0  0  0  0  0  0  0  0  0  0
  -19.8406   18.9187  -39.2946 C   0  0  0  0  0  0  0  0  0  0  0  0
  -21.0965   18.7951  -38.7712 C   0  0  0  0  0  0  0  0  0  0  0  0
  -22.1955   19.2339  -39.4772 C   0  0  0  0  0  0  0  0  0  0  0  0
  -22.0366   19.8012  -40.7175 C   0  0  0  0  0  0  0  0  0  0  0  0
  -23.0855   20.2490  -41.4530 F   0  0  0  0  0  0  0  0  0  0  0  0
  -20.7453   19.9060  -41.2080 C   0  0  0  0  0  0  0  0  0  0  0  0
  -19.6840   19.4731  -40.5068 N   0  0  0  0  0  0  0  0  0  0  0  0
  -17.4564   15.5995  -36.6344 C   0  0  0  0  0  0  0  0  0  0  0  0
  -16.5023   15.1091  -35.7807 C   0  0  0  0  0  0  0  0  0  0  0  0
  -15.7183   16.0086  -35.0562 C   0  0  0  0  0  0  0  0  0  0  0  0
  -14.7964   15.5153  -34.2284 F   0  0  0  0  0  0  0  0  0  0  0  0
  -13.5833   18.0982  -34.6145 C   0  0  0  0  0  0  0  0  0  0  0  0
  -13.2041   17.2411  -33.6160 O   0  0  0  0  0  0  0  0  0  0  0  0
  -13.9466   17.6065  -32.4975 C   0  0  0  0  0  0  0  0  0  0  0  0
  -15.2684   18.1420  -32.9846 C   0  0  1  0  0  0  0  0  0  0  0  0
  -15.5563   19.3481  -32.1204 C   0  0  0  0  0  0  0  0  0  0  0  0
  -16.8230   20.3697  -32.9798 S   0  0  0  0  0  0  0  0  0  0  0  0
  1  2  1  0
  2  3  2  0
  3  4  1  0
  4  5  1  6
  5  6  2  0
  6  7  1  0
  7  8  1  0
  8  9  1  0
  9 10  2  0
  9 11  1  0
 11 12  2  0
 12 13  1  0
 13 14  2  0
 14 15  1  0
 14 16  1  0
 16 17  2  0
  7 18  2  0
 18 19  1  0
 19 20  2  0
 20 21  1  0
  4 22  1  0
 22 23  1  0
 23 24  1  0
 25 24  1  1
 25 26  1  0
 26 27  1  0
 27  2  1  0
 25  4  1  0
 20  5  1  0
 17 11  1  0
M  END
$$$$
