
     RDKit          3D

 31 33  0  0  0  0  0  0  0  0999 V2000
  -10.3339   40.0528  -14.3622 C   0  0  0  0  0  0  0  0  0  0  0  0
  -10.2365   41.2621  -15.2233 C   0  0  0  0  0  0  0  0  0  0  0  0
  -10.5256   42.5130  -14.6400 N   0  0  0  0  0  0  0  0  0  0  0  0
  -11.8966   42.6941  -14.2705 C   0  0  0  0  0  0  0  0  0  0  0  0
  -12.8032   42.6098  -15.5148 C   0  0  0  0  0  0  0  0  0  0  0  0
  -13.1320   43.6337  -16.3009 C   0  0  0  0  0  0  0  0  0  0  0  0
  -13.9398   43.4602  -17.3467 C   0  0  0  0  0  0  0  0  0  0  0  0
  -14.4372   44.3637  -18.3197 N   0  0  0  0  0  0  0  0  0  0  0  0
  -15.3164   43.9115  -19.3283 C   0  0  0  0  0  0  0  0  0  0  0  0
  -15.7081   42.6277  -19.4100 N   0  0  0  0  0  0  0  0  0  0  0  0
  -16.5451   42.2138  -20.3661 C   0  0  0  0  0  0  0  0  0  0  0  0
  -16.9848   40.7782  -20.4571 C   0  0  0  0  0  0  0  0  0  0  0  0
  -17.0015   43.1503  -21.2772 C   0  0  0  0  0  0  0  0  0  0  0  0
  -16.6551   44.4527  -21.2612 N   0  0  0  0  0  0  0  0  0  0  0  0
  -16.9489   45.5313  -22.0067 C   0  0  0  0  0  0  0  0  0  0  0  0
  -17.8153   45.6010  -23.1596 C   0  0  0  0  0  0  0  0  0  0  0  0
  -18.0327   46.8125  -23.8456 C   0  0  0  0  0  0  0  0  0  0  0  0
  -18.8733   46.5608  -24.8574 N   0  0  0  0  0  0  0  0  0  0  0  0
  -19.2146   45.3067  -24.8853 N   0  0  0  0  0  0  0  0  0  0  0  0
  -18.5729   44.6960  -23.8462 C   0  0  0  0  0  0  0  0  0  0  0  0
  -16.2461   46.6106  -21.4497 C   0  0  0  0  0  0  0  0  0  0  0  0
  -15.5730   46.1302  -20.4084 N   0  0  0  0  0  0  0  0  0  0  0  0
  -15.7973   44.8130  -20.2600 C   0  0  0  0  0  0  0  0  0  0  0  0
  -14.3217   41.7765  -17.3140 S   0  0  0  0  0  0  0  0  0  0  0  0
  -13.3538   41.3604  -15.8557 N   0  0  0  0  0  0  0  0  0  0  0  0
   -9.6112   43.1248  -13.7669 C   0  0  0  0  0  0  0  0  0  0  0  0
   -9.3769   42.4176  -12.4466 C   0  0  0  0  0  0  0  0  0  0  0  0
  -10.1380   44.5243  -13.4130 C   0  0  0  0  0  0  0  0  0  0  0  0
   -8.2476   43.3756  -14.3763 C   0  0  0  0  0  0  0  0  0  0  0  0
   -7.5816   42.2334  -14.7788 O   0  0  0  0  0  0  0  0  0  0  0  0
  -13.8759   43.4456  -18.1334 Cl  0  0  0  0  0  0  0  0  0  0  0  0
  1  2  1  0
  2  3  1  0
  3  4  1  0
  4  5  1  0
  5  6  1  0
  6  7  2  0
  7  8  1  0
  8  9  1  0
  9 10  2  0
 10 11  1  0
 11 12  1  0
 11 13  2  0
 13 14  1  0
 14 15  1  0
 15 16  1  0
 16 17  1  0
 17 18  2  0
 18 19  1  0
 19 20  1  0
 15 21  2  0
 21 22  1  0
 22 23  2  0
  7 24  1  0
 24 25  1  0
  3 26  1  0
 26 27  1  0
 26 28  1  0
 26 29  1  0
 29 30  1  0
 25  5  2  0
 23  9  1  0
 23 14  1  0
 20 16  2  0
M  END
$$$$
