
     RDKit          3D

 17 19  0  0  0  0  0  0  0  0999 V2000
  -18.5361   38.9669  -23.0715 O   0  0  0  0  0  0  0  0  0  0  0  0
  -18.0486   39.4920  -22.0508 C   0  0  0  0  0  0  0  0  0  0  0  0
  -16.8949   40.4129  -22.0360 C   0  0  0  0  0  0  0  0  0  0  0  0
  -16.9556   41.0668  -20.6938 C   0  0  0  0  0  0  0  0  0  0  0  0
  -17.0829   42.5265  -20.8171 C   0  0  0  0  0  0  0  0  0  0  0  0
  -18.2470   43.1983  -21.1385 C   0  0  0  0  0  0  0  0  0  0  0  0
  -17.9387   44.5061  -21.1531 N   0  0  0  0  0  0  0  0  0  0  0  0
  -16.6443   44.7044  -20.8591 C   0  0  0  0  0  0  0  0  0  0  0  0
  -15.8622   45.8361  -20.7484 C   0  0  0  0  0  0  0  0  0  0  0  0
  -14.5314   45.6790  -20.4208 C   0  0  0  0  0  0  0  0  0  0  0  0
  -13.9698   44.4370  -20.2039 C   0  0  0  0  0  0  0  0  0  0  0  0
  -12.6384   44.3176  -19.8786 F   0  0  0  0  0  0  0  0  0  0  0  0
  -14.7372   43.3092  -20.3114 C   0  0  0  0  0  0  0  0  0  0  0  0
  -16.0765   43.4474  -20.6399 C   0  0  0  0  0  0  0  0  0  0  0  0
  -18.0153   40.4024  -19.9412 C   0  0  0  0  0  0  0  0  0  0  0  0
  -18.4645   40.6944  -18.8048 O   0  0  0  0  0  0  0  0  0  0  0  0
  -18.4936   39.3155  -20.7222 N   0  0  0  0  0  0  0  0  0  0  0  0
  1  2  2  0
  2  3  1  0
  3  4  1  0
  4  5  1  0
  5  6  2  0
  6  7  1  0
  7  8  1  0
  8  9  2  0
  9 10  1  0
 10 11  2  0
 11 12  1  0
 11 13  1  0
 13 14  2  0
  4 15  1  0
 15 16  2  0
 15 17  1  0
 17  2  1  0
 14  5  1  0
 14  8  1  0
M  END
$$$$
