
     RDKit          3D

 16 18  0  0  0  0  0  0  0  0999 V2000
  -20.5522   36.5715  -23.7803 N   0  0  0  0  0  0  0  0  0  0  0  0
  -19.9716   35.6844  -22.8385 C   0  0  0  0  0  0  0  0  0  0  0  0
  -20.7137   34.6512  -22.4690 N   0  0  0  0  0  0  0  0  0  0  0  0
  -20.3321   33.7137  -21.6252 C   0  0  0  0  0  0  0  0  0  0  0  0
  -19.0746   33.8233  -21.0967 N   0  0  0  0  0  0  0  0  0  0  0  0
  -18.3108   34.8502  -21.4511 C   0  0  0  0  0  0  0  0  0  0  0  0
  -16.6228   35.3442  -21.0130 S   0  0  0  0  0  0  0  0  0  0  0  0
  -16.5415   36.8563  -22.0435 C   0  0  0  0  0  0  0  0  0  0  0  0
  -17.8067   36.8432  -22.6233 C   0  0  0  0  0  0  0  0  0  0  0  0
  -18.0877   38.0188  -23.5101 C   0  0  0  0  0  0  0  0  0  0  0  0
  -18.4709   37.8281  -24.7977 C   0  0  0  0  0  0  0  0  0  0  0  0
  -18.7191   38.9301  -25.6250 C   0  0  0  0  0  0  0  0  0  0  0  0
  -18.5738   40.2022  -25.1287 C   0  0  0  0  0  0  0  0  0  0  0  0
  -18.1851   40.3900  -23.8211 C   0  0  0  0  0  0  0  0  0  0  0  0
  -17.9391   39.2763  -23.0022 C   0  0  0  0  0  0  0  0  0  0  0  0
  -18.6546   35.8665  -22.3306 C   0  0  0  0  0  0  0  0  0  0  0  0
  1  2  1  0
  2  3  2  0
  3  4  1  0
  4  5  2  0
  5  6  1  0
  6  7  1  0
  7  8  1  0
  8  9  2  0
  9 10  1  0
 10 11  2  0
 11 12  1  0
 12 13  2  0
 13 14  1  0
 14 15  2  0
  9 16  1  0
 16  2  1  0
 16  6  2  0
 15 10  1  0
M  END
$$$$
