
     RDKit          3D

 28 31  0  0  0  0  0  0  0  0999 V2000
  -15.5776   14.6696  -47.2089 C   0  0  0  0  0  0  0  0  0  0  0  0
  -15.8605   15.8320  -46.4539 O   0  0  0  0  0  0  0  0  0  0  0  0
  -14.9010   16.7851  -46.1821 C   0  0  0  0  0  0  0  0  0  0  0  0
  -13.7538   16.6014  -46.6583 O   0  0  0  0  0  0  0  0  0  0  0  0
  -15.2658   17.9427  -45.3653 C   0  0  0  0  0  0  0  0  0  0  0  0
  -14.0857   18.6519  -44.7652 C   0  0  2  0  0  0  0  0  0  0  0  0
  -13.6834   18.1103  -43.5075 N   0  0  0  0  0  0  0  0  0  0  0  0
  -12.7226   18.4627  -42.6837 C   0  0  0  0  0  0  0  0  0  0  0  0
  -12.5342   17.7440  -41.4588 C   0  0  0  0  0  0  0  0  0  0  0  0
  -13.1906   16.5433  -41.2265 C   0  0  0  0  0  0  0  0  0  0  0  0
  -13.1720   15.9223  -39.9985 C   0  0  0  0  0  0  0  0  0  0  0  0
  -12.4862   16.4778  -38.9238 C   0  0  0  0  0  0  0  0  0  0  0  0
  -12.4777   15.6690  -37.3781 Cl  0  0  0  0  0  0  0  0  0  0  0  0
  -11.8404   17.6627  -39.1550 C   0  0  0  0  0  0  0  0  0  0  0  0
  -11.8658   18.2819  -40.3972 C   0  0  0  0  0  0  0  0  0  0  0  0
  -11.7242   19.5345  -42.9636 C   0  0  0  0  0  0  0  0  0  0  0  0
  -12.1687   20.7599  -43.5714 C   0  0  0  0  0  0  0  0  0  0  0  0
  -10.7978   21.7478  -43.6249 S   0  0  0  0  0  0  0  0  0  0  0  0
   -9.6591   20.6257  -42.8967 C   0  0  0  0  0  0  0  0  0  0  0  0
   -8.2038   20.8546  -42.6271 C   0  0  0  0  0  0  0  0  0  0  0  0
  -10.4397   19.5131  -42.6458 C   0  0  0  0  0  0  0  0  0  0  0  0
   -9.7267   18.2587  -42.1449 C   0  0  0  0  0  0  0  0  0  0  0  0
  -13.4946   21.0207  -44.1192 N   0  0  0  0  0  0  0  0  0  0  0  0
  -14.0011   22.2712  -44.1672 C   0  0  0  0  0  0  0  0  0  0  0  0
  -13.2668   23.4757  -43.6867 C   0  0  0  0  0  0  0  0  0  0  0  0
  -15.2054   22.1090  -44.7230 N   0  0  0  0  0  0  0  0  0  0  0  0
  -15.4280   20.8133  -45.0054 N   0  0  0  0  0  0  0  0  0  0  0  0
  -14.3619   20.1195  -44.6327 C   0  0  0  0  0  0  0  0  0  0  0  0
  1  2  1  0
  2  3  1  0
  3  4  2  0
  3  5  1  0
  6  5  1  1
  6  7  1  0
  7  8  2  0
  8  9  1  0
  9 10  2  0
 10 11  1  0
 11 12  2  0
 12 13  1  0
 12 14  1  0
 14 15  2  0
  8 16  1  0
 16 17  2  0
 17 18  1  0
 18 19  1  0
 19 20  1  0
 19 21  2  0
 21 22  1  0
 17 23  1  0
 23 24  1  0
 24 25  1  0
 24 26  2  0
 26 27  1  0
 27 28  2  0
 28  6  1  0
 15  9  1  0
 21 16  1  0
 28 23  1  0
M  END
$$$$
