
     RDKit          3D

 19 21  0  0  0  0  0  0  0  0999 V2000
  -18.1144   42.4496  -22.0613 N   0  0  0  0  0  0  0  0  0  0  0  0
  -17.9566   41.2809  -21.2905 C   0  0  0  0  0  0  0  0  0  0  0  0
  -17.4803   41.3144  -20.0351 N   0  0  0  0  0  0  0  0  0  0  0  0
  -17.3097   40.2341  -19.2569 C   0  0  0  0  0  0  0  0  0  0  0  0
  -17.6338   39.0327  -19.7563 N   0  0  0  0  0  0  0  0  0  0  0  0
  -18.1180   38.8914  -21.0001 C   0  0  0  0  0  0  0  0  0  0  0  0
  -18.2833   40.0231  -21.7799 C   0  0  0  0  0  0  0  0  0  0  0  0
  -18.7674   39.6188  -22.9444 N   0  0  0  0  0  0  0  0  0  0  0  0
  -18.9064   38.2697  -22.9077 C   0  0  0  0  0  0  0  0  0  0  0  0
  -18.5098   37.8006  -21.7128 N   0  0  0  0  0  0  0  0  0  0  0  0
  -18.5024   36.4172  -21.2769 C   0  0  0  0  0  0  0  0  0  0  0  0
  -19.6382   35.7559  -21.6370 O   0  0  0  0  0  0  0  0  0  0  0  0
  -19.3447   34.5853  -22.2641 C   0  0  2  0  0  0  0  0  0  0  0  0
  -19.5566   33.4076  -21.3245 C   0  0  0  0  0  0  0  0  0  0  0  0
  -19.9937   32.2784  -22.0399 O   0  0  0  0  0  0  0  0  0  0  0  0
  -17.8929   34.6014  -22.6550 C   0  0  1  0  0  0  0  0  0  0  0  0
  -17.7989   34.9172  -23.9931 O   0  0  0  0  0  0  0  0  0  0  0  0
  -17.3037   35.6661  -21.7651 C   0  0  1  0  0  0  0  0  0  0  0  0
  -16.4760   36.5187  -22.4874 O   0  0  0  0  0  0  0  0  0  0  0  0
  1  2  1  0
  2  3  2  0
  3  4  1  0
  4  5  2  0
  5  6  1  0
  6  7  2  0
  7  8  1  0
  8  9  2  0
  9 10  1  0
 10 11  1  0
 11 12  1  0
 12 13  1  0
 13 14  1  1
 14 15  1  0
 13 16  1  0
 16 17  1  6
 16 18  1  0
 18 19  1  6
  7  2  1  0
 18 11  1  0
 10  6  1  0
M  END
$$$$
