
     RDKit          3D

 29 31  0  0  0  0  0  0  0  0999 V2000
  -51.1145   12.1185  -38.6134 C   0  0  0  0  0  0  0  0  0  0  0  0
  -49.8908   12.9509  -38.5272 C   0  0  0  0  0  0  0  0  0  0  0  0
  -48.8584   12.5495  -37.5412 C   0  0  0  0  0  0  0  0  0  0  0  0
  -47.5450   12.0961  -38.0431 C   0  0  0  0  0  0  0  0  0  0  0  0
  -46.4799   13.1251  -38.2522 C   0  0  0  0  0  0  0  0  0  0  0  0
  -45.4602   12.4865  -39.2246 C   0  0  0  0  0  0  0  0  0  0  0  0
  -45.5912   11.0151  -39.2766 C   0  0  0  0  0  0  0  0  0  0  0  0
  -44.4851   10.2824  -39.9276 C   0  0  0  0  0  0  0  0  0  0  0  0
  -43.8359    9.4297  -39.2992 O   0  0  0  0  0  0  0  0  0  0  0  0
  -44.1127   10.5100  -41.2831 N   0  0  0  0  0  0  0  0  0  0  0  0
  -42.9947    9.8308  -41.9019 C   0  0  2  0  0  0  0  0  0  0  0  0
  -41.8127   10.7533  -42.0295 C   0  0  0  0  0  0  0  0  0  0  0  0
  -41.5893   11.5880  -40.8962 N   0  0  0  0  0  0  0  0  0  0  0  0
  -41.2076   10.9152  -39.6879 C   0  0  0  0  0  0  0  0  0  0  0  0
  -40.1015   11.7757  -39.0645 C   0  0  0  0  0  0  0  0  0  0  0  0
  -39.3495   12.1531  -40.3486 C   0  0  0  0  0  0  0  0  0  0  0  0
  -40.5195   12.5172  -41.2450 C   0  0  0  0  0  0  0  0  0  0  0  0
  -43.4005    9.2522  -43.2399 C   0  0  2  0  0  0  0  0  0  0  0  0
  -44.7788    9.2205  -43.4030 O   0  0  0  0  0  0  0  0  0  0  0  0
  -42.8345    7.9345  -43.5169 C   0  0  0  0  0  0  0  0  0  0  0  0
  -41.4913    7.7611  -43.7289 C   0  0  0  0  0  0  0  0  0  0  0  0
  -41.0348    6.4705  -43.9907 C   0  0  0  0  0  0  0  0  0  0  0  0
  -41.8678    5.3992  -44.0409 C   0  0  0  0  0  0  0  0  0  0  0  0
  -43.2332    5.5679  -43.8266 C   0  0  0  0  0  0  0  0  0  0  0  0
  -43.6834    6.8444  -43.5676 C   0  0  0  0  0  0  0  0  0  0  0  0
  -44.0713    4.4750  -43.8802 O   0  0  0  0  0  0  0  0  0  0  0  0
  -43.7626    3.2281  -44.4295 C   0  0  0  0  0  0  0  0  0  0  0  0
  -42.3904    3.2242  -45.0103 C   0  0  0  0  0  0  0  0  0  0  0  0
  -41.4831    4.0833  -44.2975 O   0  0  0  0  0  0  0  0  0  0  0  0
  1  2  1  0
  2  3  1  0
  3  4  1  0
  4  5  1  0
  5  6  1  0
  6  7  1  0
  7  8  1  0
  8  9  2  0
  8 10  1  0
 10 11  1  0
 11 12  1  6
 12 13  1  0
 13 14  1  0
 14 15  1  0
 15 16  1  0
 16 17  1  0
 11 18  1  0
 18 19  1  1
 18 20  1  0
 20 21  2  0
 21 22  1  0
 22 23  2  0
 23 24  1  0
 24 25  2  0
 24 26  1  0
 26 27  1  0
 27 28  1  0
 28 29  1  0
 17 13  1  0
 25 20  1  0
 29 23  1  0
M  END
$$$$
