
     RDKit          3D

 27 29  0  0  0  0  0  0  0  0999 V2000
  -17.5947   45.4255  -20.6685 C   0  0  0  0  0  0  0  0  0  0  0  0
  -16.6585   44.6095  -21.9389 S   0  0  0  0  0  6  0  0  0  0  0  0
  -15.2137   44.8058  -21.6763 O   0  0  0  0  0  0  0  0  0  0  0  0
  -16.9751   45.1613  -23.2996 O   0  0  0  0  0  0  0  0  0  0  0  0
  -17.0188   42.9008  -21.8340 C   0  0  0  0  0  0  0  0  0  0  0  0
  -16.6477   42.0136  -22.8216 C   0  0  0  0  0  0  0  0  0  0  0  0
  -16.9546   40.6738  -22.6958 C   0  0  0  0  0  0  0  0  0  0  0  0
  -17.6324   40.1769  -21.5977 C   0  0  0  0  0  0  0  0  0  0  0  0
  -17.9474   38.7529  -21.4906 C   0  0  0  0  0  0  0  0  0  0  0  0
  -17.8770   38.1667  -20.3722 O   0  0  0  0  0  0  0  0  0  0  0  0
  -18.3333   38.0126  -22.6264 N   0  0  0  0  0  0  0  0  0  0  0  0
  -18.8769   36.7014  -22.5881 C   0  0  0  0  0  0  0  0  0  0  0  0
  -20.2346   36.5696  -22.7735 C   0  0  0  0  0  0  0  0  0  0  0  0
  -20.7742   35.2893  -22.7358 C   0  0  0  0  0  0  0  0  0  0  0  0
  -19.9504   34.2077  -22.5179 C   0  0  0  0  0  0  0  0  0  0  0  0
  -20.6294   32.5954  -22.4704 Cl  0  0  0  0  0  0  0  0  0  0  0  0
  -18.5763   34.3174  -22.3280 C   0  0  0  0  0  0  0  0  0  0  0  0
  -17.7686   33.1254  -22.1008 C   0  0  0  0  0  0  0  0  0  0  0  0
  -18.2537   31.9747  -21.5309 C   0  0  0  0  0  0  0  0  0  0  0  0
  -17.4405   30.8557  -21.3337 C   0  0  0  0  0  0  0  0  0  0  0  0
  -16.1209   30.9053  -21.7191 C   0  0  0  0  0  0  0  0  0  0  0  0
  -15.6589   32.0678  -22.2872 C   0  0  0  0  0  0  0  0  0  0  0  0
  -16.4782   33.1181  -22.4567 N   0  0  0  0  0  0  0  0  0  0  0  0
  -18.0638   35.5952  -22.3695 C   0  0  0  0  0  0  0  0  0  0  0  0
  -18.0033   41.0633  -20.6105 C   0  0  0  0  0  0  0  0  0  0  0  0
  -18.8554   40.5306  -19.1973 Cl  0  0  0  0  0  0  0  0  0  0  0  0
  -17.6996   42.4223  -20.7239 C   0  0  0  0  0  0  0  0  0  0  0  0
  1  2  1  0
  2  3  2  0
  2  4  2  0
  2  5  1  0
  5  6  2  0
  6  7  1  0
  7  8  2  0
  8  9  1  0
  9 10  2  0
  9 11  1  0
 11 12  1  0
 12 13  2  0
 13 14  1  0
 14 15  2  0
 15 16  1  0
 15 17  1  0
 17 18  1  0
 18 19  2  0
 19 20  1  0
 20 21  2  0
 21 22  1  0
 22 23  2  0
 17 24  2  0
  8 25  1  0
 25 26  1  0
 25 27  2  0
 27  5  1  0
 24 12  1  0
 23 18  1  0
M  END
$$$$
