
     RDKit          3D

 62 68  0  0  0  0  0  0  0  0999 V2000
  -11.3795   17.2862  -42.6219 C   0  0  0  0  0  0  0  0  0  0  0  0
  -12.2241   17.7911  -41.5423 C   0  0  0  0  0  0  0  0  0  0  0  0
  -11.8378   17.9948  -40.3558 O   0  0  0  0  0  0  0  0  0  0  0  0
  -13.5450   18.0770  -41.8015 O   0  0  0  0  0  0  0  0  0  0  0  0
  -14.0906   19.0621  -42.5682 C   0  0  1  0  0  0  0  0  0  0  0  0
  -14.1930   18.6181  -44.0660 C   0  0  0  0  0  0  0  0  0  0  0  0
  -13.1723   18.0244  -44.1971 O   0  0  0  0  0  0  0  0  0  0  0  0
  -14.9739   18.6275  -45.2907 C   0  0  2  0  0  0  0  0  0  0  0  0
  -15.5564   17.2357  -45.3976 C   0  0  0  0  0  0  0  0  0  0  0  0
  -13.8606   18.6164  -46.3858 C   0  0  1  0  0  0  0  0  0  0  0  0
  -12.8602   17.7283  -46.1691 O   0  0  0  0  0  0  0  0  0  0  0  0
  -14.3688   18.2925  -47.7461 C   0  0  0  0  0  0  0  0  0  0  0  0
  -15.6820   18.8179  -48.0894 C   0  0  1  0  0  0  0  0  0  0  0  0
  -16.7011   17.8894  -48.0473 O   0  0  0  0  0  0  0  0  0  0  0  0
  -17.4849   18.8947  -47.4202 C   0  0  0  0  0  0  0  0  0  0  0  0
  -16.3259   19.7423  -47.1332 C   0  0  2  0  0  0  0  0  0  0  0  0
  -16.2459   21.0451  -47.6985 O   0  0  0  0  0  0  0  0  0  0  0  0
  -17.2363   21.9070  -47.9740 C   0  0  0  0  0  0  0  0  0  0  0  0
  -17.0128   23.2935  -48.4427 C   0  0  0  0  0  0  0  0  0  0  0  0
  -18.4050   21.5163  -47.8268 O   0  0  0  0  0  0  0  0  0  0  0  0
  -15.7900   19.7564  -45.7134 C   0  0  1  0  0  0  0  0  0  0  0  0
  -16.8710   20.4342  -44.9579 C   0  0  2  0  0  0  0  0  0  0  0  0
  -17.0293   21.7939  -45.3930 O   0  0  0  0  0  0  0  0  0  0  0  0
  -18.2578   22.4053  -45.5087 C   0  0  0  0  0  0  0  0  0  0  0  0
  -18.4389   23.4570  -44.8823 O   0  0  0  0  0  0  0  0  0  0  0  0
  -19.2868   21.8213  -46.3396 C   0  0  0  0  0  0  0  0  0  0  0  0
  -19.0914   21.7370  -47.7017 C   0  0  0  0  0  0  0  0  0  0  0  0
  -20.0797   21.1808  -48.5234 C   0  0  0  0  0  0  0  0  0  0  0  0
  -21.2537   20.7161  -47.9698 C   0  0  0  0  0  0  0  0  0  0  0  0
  -21.4558   20.7957  -46.6179 C   0  0  0  0  0  0  0  0  0  0  0  0
  -20.4609   21.3523  -45.8098 C   0  0  0  0  0  0  0  0  0  0  0  0
  -16.8283   20.4147  -43.5314 C   0  0  2  0  0  0  0  0  0  0  0  0
  -16.7459   18.9532  -43.4718 O   0  0  0  0  0  0  0  0  0  0  0  0
  -17.9278   20.4978  -42.5558 C   0  0  0  0  0  0  0  0  0  0  0  0
  -17.5065   19.5979  -41.3814 C   0  0  2  0  0  0  0  0  0  0  0  0
  -18.1742   19.6992  -40.2145 O   0  0  0  0  0  0  0  0  0  0  0  0
  -19.3015   20.4605  -39.9703 C   0  0  0  0  0  0  0  0  0  0  0  0
  -19.4631   21.4395  -40.7763 O   0  0  0  0  0  0  0  0  0  0  0  0
  -20.2847   20.2487  -38.9103 C   0  0  2  0  0  0  0  0  0  0  0  0
  -20.2036   21.2974  -37.9662 O   0  0  0  0  0  0  0  0  0  0  0  0
  -20.1160   18.9523  -38.2293 C   0  0  1  0  0  0  0  0  0  0  0  0
  -18.9921   18.8940  -37.2960 N   0  0  0  0  0  0  0  0  0  0  0  0
  -18.2040   17.7163  -37.1750 C   0  0  0  0  0  0  0  0  0  0  0  0
  -18.6245   16.7304  -37.8744 O   0  0  0  0  0  0  0  0  0  0  0  0
  -17.0264   17.5665  -36.3534 C   0  0  0  0  0  0  0  0  0  0  0  0
  -16.9385   18.2489  -35.1328 C   0  0  0  0  0  0  0  0  0  0  0  0
  -15.8512   18.1175  -34.2933 C   0  0  0  0  0  0  0  0  0  0  0  0
  -14.8026   17.2945  -34.6408 C   0  0  0  0  0  0  0  0  0  0  0  0
  -14.8712   16.6140  -35.8388 C   0  0  0  0  0  0  0  0  0  0  0  0
  -15.9714   16.7530  -36.6798 C   0  0  0  0  0  0  0  0  0  0  0  0
  -21.3068   18.6160  -37.3628 C   0  0  0  0  0  0  0  0  0  0  0  0
  -21.2564   18.9755  -36.0423 C   0  0  0  0  0  0  0  0  0  0  0  0
  -22.3226   18.7228  -35.1740 C   0  0  0  0  0  0  0  0  0  0  0  0
  -23.4470   18.1060  -35.6260 C   0  0  0  0  0  0  0  0  0  0  0  0
  -23.4815   17.7456  -36.9770 C   0  0  0  0  0  0  0  0  0  0  0  0
  -22.4258   17.9979  -37.8316 C   0  0  0  0  0  0  0  0  0  0  0  0
  -16.0146   19.3565  -41.3113 C   0  0  0  0  0  0  0  0  0  0  0  0
  -15.4396   18.5146  -40.2782 C   0  0  0  0  0  0  0  0  0  0  0  0
  -15.1908   19.8505  -42.2098 C   0  0  0  0  0  0  0  0  0  0  0  0
  -15.6989   21.1147  -42.8243 C   0  0  0  0  0  0  0  0  0  0  0  0
  -14.6783   21.8223  -43.6390 C   0  0  0  0  0  0  0  0  0  0  0  0
  -16.1571   22.1352  -41.8053 C   0  0  0  0  0  0  0  0  0  0  0  0
  1  2  1  0
  2  3  2  0
  2  4  1  0
  5  4  1  1
  5  6  1  0
  6  7  2  0
  6  8  1  0
  8  9  1  6
  8 10  1  0
 10 11  1  1
 10 12  1  0
 13 12  1  1
 13 14  1  0
 14 15  1  0
 15 16  1  0
 16 17  1  6
 17 18  1  0
 18 19  1  0
 18 20  2  0
 16 21  1  0
 21 22  1  1
 22 23  1  6
 23 24  1  0
 24 25  2  0
 24 26  1  0
 26 27  2  0
 27 28  1  0
 28 29  2  0
 29 30  1  0
 30 31  2  0
 22 32  1  0
 32 33  1  6
 32 34  1  0
 34 35  1  0
 35 36  1  1
 36 37  1  0
 37 38  2  0
 37 39  1  0
 39 40  1  1
 39 41  1  0
 41 42  1  1
 42 43  1  0
 43 44  2  0
 43 45  1  0
 45 46  2  0
 46 47  1  0
 47 48  2  0
 48 49  1  0
 49 50  2  0
 41 51  1  0
 51 52  2  0
 52 53  1  0
 53 54  2  0
 54 55  1  0
 55 56  2  0
 35 57  1  0
 57 58  1  0
 57 59  2  0
 59 60  1  0
 60 61  1  0
 60 62  1  0
 59  5  1  0
 21  8  1  0
 31 26  1  0
 60 32  1  0
 16 13  1  0
 50 45  1  0
 56 51  1  0
M  END
$$$$
