
     RDKit          3D

 30 33  0  0  0  0  0  0  0  0999 V2000
  -17.5143   17.1895  -29.9986 O   0  0  0  0  0  0  0  0  0  0  0  0
  -16.4402   17.0566  -30.6390 C   0  0  0  0  0  0  0  0  0  0  0  0
  -16.0666   18.1033  -31.5084 N   0  0  0  0  0  0  0  0  0  0  0  0
  -16.8117   19.3328  -31.6995 C   0  0  0  0  0  0  0  0  0  0  0  0
  -18.0216   19.2026  -32.5035 C   0  0  0  0  0  0  0  0  0  0  0  0
  -19.2469   19.3415  -31.8856 C   0  0  0  0  0  0  0  0  0  0  0  0
  -20.4219   19.2378  -32.5885 C   0  0  0  0  0  0  0  0  0  0  0  0
  -20.3631   18.9900  -33.9362 C   0  0  0  0  0  0  0  0  0  0  0  0
  -21.8545   18.8537  -34.8505 S   0  0  0  0  0  6  0  0  0  0  0  0
  -21.6251   19.2644  -36.2709 O   0  0  0  0  0  0  0  0  0  0  0  0
  -22.8749   19.7402  -34.1868 O   0  0  0  0  0  0  0  0  0  0  0  0
  -22.4643   17.2136  -34.7966 C   0  0  0  0  0  0  0  0  0  0  0  0
  -23.3159   16.8689  -33.7809 C   0  0  0  0  0  0  0  0  0  0  0  0
  -23.8399   15.6039  -33.6647 C   0  0  0  0  0  0  0  0  0  0  0  0
  -24.6905   15.2416  -32.6588 F   0  0  0  0  0  0  0  0  0  0  0  0
  -23.4704   14.6714  -34.6284 C   0  0  0  0  0  0  0  0  0  0  0  0
  -22.6244   14.9841  -35.6519 C   0  0  0  0  0  0  0  0  0  0  0  0
  -22.2717   14.0695  -36.5836 F   0  0  0  0  0  0  0  0  0  0  0  0
  -22.1214   16.2772  -35.7252 C   0  0  0  0  0  0  0  0  0  0  0  0
  -19.1674   18.8459  -34.5866 C   0  0  0  0  0  0  0  0  0  0  0  0
  -17.9836   18.9548  -33.8552 C   0  0  0  0  0  0  0  0  0  0  0  0
  -15.6836   15.8302  -30.4198 C   0  0  0  0  0  0  0  0  0  0  0  0
  -16.0932   14.9094  -29.4542 C   0  0  0  0  0  0  0  0  0  0  0  0
  -15.3671   13.7569  -29.2611 C   0  0  0  0  0  0  0  0  0  0  0  0
  -14.2319   13.5057  -30.0196 C   0  0  0  0  0  0  0  0  0  0  0  0
  -13.3400   12.5024  -30.0643 N   0  0  0  0  0  0  0  0  0  0  0  0
  -12.3941   12.7256  -30.9920 C   0  0  0  0  0  0  0  0  0  0  0  0
  -12.7149   13.9392  -31.5593 C   0  0  0  0  0  0  0  0  0  0  0  0
  -13.8471   14.3960  -30.9438 N   0  0  0  0  0  0  0  0  0  0  0  0
  -14.5520   15.5118  -31.1293 C   0  0  0  0  0  0  0  0  0  0  0  0
  1  2  2  0
  2  3  1  0
  3  4  1  0
  4  5  1  0
  5  6  2  0
  6  7  1  0
  7  8  2  0
  8  9  1  0
  9 10  2  0
  9 11  2  0
  9 12  1  0
 12 13  2  0
 13 14  1  0
 14 15  1  0
 14 16  2  0
 16 17  1  0
 17 18  1  0
 17 19  2  0
  8 20  1  0
 20 21  2  0
  2 22  1  0
 22 23  1  0
 23 24  2  0
 24 25  1  0
 25 26  2  0
 26 27  1  0
 27 28  2  0
 28 29  1  0
 29 30  1  0
 21  5  1  0
 30 22  2  0
 19 12  1  0
 29 25  1  0
M  END
$$$$
