
     RDKit          3D

 29 30  0  0  0  0  0  0  0  0999 V2000
  -19.8094   33.5291  -24.0232 C   0  0  0  0  0  0  0  0  0  0  0  0
  -19.6000   34.7621  -23.1757 C   0  0  0  0  0  0  0  0  0  0  0  0
  -18.3680   35.5354  -23.6259 C   0  0  0  0  0  0  0  0  0  0  0  0
  -18.0623   36.6649  -22.6989 C   0  0  0  0  0  0  0  0  0  0  0  0
  -18.5984   37.9426  -22.9429 C   0  0  0  0  0  0  0  0  0  0  0  0
  -19.3856   38.1040  -24.0199 O   0  0  0  0  0  0  0  0  0  0  0  0
  -20.2984   39.0323  -24.4391 C   0  0  0  0  0  0  0  0  0  0  0  0
  -20.3502   39.1270  -25.9270 C   0  0  0  0  0  0  0  0  0  0  0  0
  -21.4141   38.2287  -26.5291 C   0  0  0  0  0  0  0  0  0  0  0  0
  -21.6596   38.5571  -27.8818 O   0  0  0  0  0  0  0  0  0  0  0  0
  -22.6706   37.8730  -28.5375 C   0  0  0  0  0  0  0  0  0  0  0  0
  -23.0083   36.6144  -28.0813 C   0  0  0  0  0  0  0  0  0  0  0  0
  -24.0104   35.8743  -28.6910 C   0  0  0  0  0  0  0  0  0  0  0  0
  -24.7154   36.3653  -29.7831 C   0  0  0  0  0  0  0  0  0  0  0  0
  -25.7004   35.5991  -30.3568 O   0  0  0  0  0  0  0  0  0  0  0  0
  -25.6234   35.0584  -31.6535 C   0  0  0  0  0  0  0  0  0  0  0  0
  -26.9386   35.1635  -32.3603 C   0  0  0  0  0  0  0  0  0  0  0  0
  -28.0173   34.8627  -31.7857 O   0  0  0  0  0  0  0  0  0  0  0  0
  -26.9924   35.5972  -33.6702 O   0  0  0  0  0  0  0  0  0  0  0  0
  -24.3693   37.6235  -30.2297 C   0  0  0  0  0  0  0  0  0  0  0  0
  -23.3699   38.3629  -29.6225 C   0  0  0  0  0  0  0  0  0  0  0  0
  -18.2764   38.9199  -22.0584 C   0  0  0  0  0  0  0  0  0  0  0  0
  -17.4573   38.7388  -20.9387 C   0  0  0  0  0  0  0  0  0  0  0  0
  -16.9392   37.4782  -20.7146 C   0  0  0  0  0  0  0  0  0  0  0  0
  -16.0889   37.2914  -19.5497 C   0  0  0  0  0  0  0  0  0  0  0  0
  -15.3673   36.0223  -19.2844 C   0  0  0  0  0  0  0  0  0  0  0  0
  -15.9478   38.2248  -18.7281 O   0  0  0  0  0  0  0  0  0  0  0  0
  -17.2542   36.4563  -21.6061 C   0  0  0  0  0  0  0  0  0  0  0  0
  -16.7043   35.1986  -21.3341 O   0  0  0  0  0  0  0  0  0  0  0  0
  1  2  1  0
  2  3  1  0
  3  4  1  0
  4  5  2  0
  5  6  1  0
  6  7  1  0
  7  8  1  0
  8  9  1  0
  9 10  1  0
 10 11  1  0
 11 12  2  0
 12 13  1  0
 13 14  2  0
 14 15  1  0
 15 16  1  0
 16 17  1  0
 17 18  2  0
 17 19  1  0
 14 20  1  0
 20 21  2  0
  5 22  1  0
 22 23  2  0
 23 24  1  0
 24 25  1  0
 25 26  1  0
 25 27  2  0
 24 28  2  0
 28 29  1  0
 28  4  1  0
 21 11  1  0
M  END
$$$$
