
     RDKit          3D

 31 33  0  0  0  0  0  0  0  0999 V2000
  -18.8340   41.5759  -25.5450 C   0  0  0  0  0  0  0  0  0  0  0  0
  -18.3325   42.5407  -24.5300 C   0  0  0  0  0  0  0  0  0  0  0  0
  -18.1558   43.8413  -24.7073 O   0  0  0  0  0  0  0  0  0  0  0  0
  -17.7088   44.3967  -23.6353 N   0  0  0  0  0  0  0  0  0  0  0  0
  -17.5560   43.4899  -22.6590 C   0  0  0  0  0  0  0  0  0  0  0  0
  -17.0834   43.6825  -21.3053 C   0  0  0  0  0  0  0  0  0  0  0  0
  -15.7420   43.5787  -20.9962 C   0  0  0  0  0  0  0  0  0  0  0  0
  -14.5873   43.2075  -22.2606 Cl  0  0  0  0  0  0  0  0  0  0  0  0
  -15.2577   43.7550  -19.7244 C   0  0  0  0  0  0  0  0  0  0  0  0
  -16.1146   44.0493  -18.6839 C   0  0  0  0  0  0  0  0  0  0  0  0
  -17.4634   44.1597  -18.9620 C   0  0  0  0  0  0  0  0  0  0  0  0
  -17.9384   43.9794  -20.2493 C   0  0  0  0  0  0  0  0  0  0  0  0
  -19.6442   44.1326  -20.5268 Cl  0  0  0  0  0  0  0  0  0  0  0  0
  -17.9627   42.2740  -23.2386 C   0  0  0  0  0  0  0  0  0  0  0  0
  -17.9476   41.0368  -22.4805 C   0  0  0  0  0  0  0  0  0  0  0  0
  -17.5008   41.0301  -21.2679 O   0  0  0  0  0  0  0  0  0  0  0  0
  -18.3887   39.7722  -22.9391 N   0  0  0  0  0  0  0  0  0  0  0  0
  -18.3124   38.5883  -22.0499 C   0  0  0  0  0  0  0  0  0  0  0  0
  -19.6791   37.9824  -21.9579 C   0  0  0  0  0  0  0  0  0  0  0  0
  -20.7872   38.5295  -21.7031 O   0  0  0  0  0  0  0  0  0  0  0  0
  -19.2075   36.6767  -22.2525 N   0  0  0  0  0  0  0  0  0  0  0  0
  -17.9641   37.3085  -22.7437 C   0  0  0  0  0  0  0  0  0  0  0  0
  -16.7651   36.2425  -21.8553 S   0  0  0  0  0  0  0  0  0  0  0  0
  -17.9006   34.8406  -21.5006 C   0  0  0  0  0  0  0  0  0  0  0  0
  -17.3162   33.5334  -21.8999 C   0  0  0  0  0  0  0  0  0  0  0  0
  -18.2827   34.9359  -20.0577 C   0  0  0  0  0  0  0  0  0  0  0  0
  -19.0690   35.2480  -22.4107 C   0  0  0  0  0  0  0  0  0  0  0  0
  -18.6986   34.9789  -23.8010 C   0  0  0  0  0  0  0  0  0  0  0  0
  -19.5675   35.0426  -24.6974 O   0  0  0  0  0  0  0  0  0  0  0  0
  -17.4016   34.6543  -24.1438 O   0  0  0  0  0  1  0  0  0  0  0  0
  -17.9461   39.3848  -21.9754 Na  0  0  0  0  0 15  0  0  0  0  0  0
  1  2  1  0
  2  3  1  0
  3  4  1  0
  4  5  2  0
  5  6  1  0
  6  7  2  0
  7  8  1  0
  7  9  1  0
  9 10  2  0
 10 11  1  0
 11 12  2  0
 12 13  1  0
  5 14  1  0
 14 15  1  0
 15 16  2  0
 15 17  1  0
 17 18  1  0
 18 19  1  0
 19 20  2  0
 19 21  1  0
 21 22  1  0
 22 23  1  0
 23 24  1  0
 24 25  1  0
 24 26  1  0
 24 27  1  0
 27 28  1  0
 28 29  2  0
 28 30  1  0
 14  2  2  0
 22 18  1  0
 12  6  1  0
 27 21  1  0
M  CHG  2  30  -1  31   1
M  END
$$$$
