
     RDKit          3D

  7  6  0  0  0  0  0  0  0  0999 V2000
  -46.4887   33.7109  -11.9209 Cl  0  0  0  0  0  0  0  0  0  0  0  0
  -45.3204   33.5896  -10.5554 N   0  0  0  0  0  0  0  0  0  0  0  0
  -46.2700   33.6853  -11.6135 C   0  0  0  0  0  0  0  0  0  0  0  0
  -47.5120   33.7265  -11.6288 N   0  0  0  0  0  0  0  0  0  0  0  0
  -48.2457   33.8226  -12.8053 C   0  0  0  0  0  0  0  0  0  0  0  0
  -47.4321   33.5090  -14.0262 C   0  0  0  0  0  0  0  0  0  0  0  0
  -45.7480   33.7711  -13.3244 S   0  0  0  0  0  0  0  0  0  0  0  0
  2  3  1  0
  3  4  2  0
  4  5  1  0
  5  6  1  0
  6  7  1  0
  7  3  1  0
M  END
$$$$
