
     RDKit          3D

 29 32  0  0  0  0  0  0  0  0999 V2000
  -16.3453   18.3421  -38.4984 O   0  0  0  0  0  0  0  0  0  0  0  0
  -15.8705   18.4298  -37.3678 C   0  0  0  0  0  0  0  0  0  0  0  0
  -14.5354   18.1113  -37.1082 N   0  0  0  0  0  0  0  0  0  0  0  0
  -13.5805   17.7052  -38.0428 C   0  0  0  0  0  0  0  0  0  0  0  0
  -12.5238   16.8719  -37.6295 C   0  0  0  0  0  0  0  0  0  0  0  0
  -11.5665   16.4508  -38.5141 C   0  0  0  0  0  0  0  0  0  0  0  0
  -11.6038   16.8283  -39.8414 C   0  0  0  0  0  0  0  0  0  0  0  0
  -10.8057   16.5630  -40.9023 N   0  0  0  0  0  0  0  0  0  0  0  0
  -11.3411   17.2057  -41.9429 C   0  0  0  0  0  0  0  0  0  0  0  0
  -10.8727   17.1942  -43.1095 O   0  0  0  0  0  0  0  0  0  0  0  0
  -12.4278   17.8475  -41.5566 O   0  0  0  0  0  0  0  0  0  0  0  0
  -12.6242   17.6428  -40.2772 C   0  0  0  0  0  0  0  0  0  0  0  0
  -13.6055   18.0712  -39.3585 C   0  0  0  0  0  0  0  0  0  0  0  0
  -16.7486   18.8891  -36.2478 C   0  0  0  0  0  0  0  0  0  0  0  0
  -16.2656   19.0145  -35.1193 O   0  0  0  0  0  0  0  0  0  0  0  0
  -18.1028   19.1697  -36.4951 N   0  0  0  0  0  0  0  0  0  0  0  0
  -18.9299   19.9309  -35.5509 C   0  0  0  0  0  0  0  0  0  0  0  0
  -20.3061   20.0714  -36.1904 C   0  0  0  0  0  0  0  0  0  0  0  0
  -20.8904   18.7345  -36.5659 C   0  0  0  0  0  0  0  0  0  0  0  0
  -22.1220   18.9627  -37.4092 C   0  0  0  0  0  0  0  0  0  0  0  0
  -22.6902   17.6620  -37.7783 C   0  0  0  0  0  0  0  0  0  0  0  0
  -23.5539   16.9515  -36.9815 C   0  0  0  0  0  0  0  0  0  0  0  0
  -24.0914   15.7284  -37.3230 C   0  0  0  0  0  0  0  0  0  0  0  0
  -23.7356   15.1904  -38.5421 C   0  0  0  0  0  0  0  0  0  0  0  0
  -24.2208   13.9948  -38.9487 F   0  0  0  0  0  0  0  0  0  0  0  0
  -22.8642   15.8841  -39.3708 C   0  0  0  0  0  0  0  0  0  0  0  0
  -22.3462   17.1074  -38.9937 C   0  0  0  0  0  0  0  0  0  0  0  0
  -19.9291   17.8771  -37.3281 C   0  0  0  0  0  0  0  0  0  0  0  0
  -18.7078   18.6956  -37.7168 C   0  0  0  0  0  0  0  0  0  0  0  0
  1  2  2  0
  2  3  1  0
  3  4  1  0
  4  5  2  0
  5  6  1  0
  6  7  2  0
  7  8  1  0
  8  9  1  0
  9 10  2  0
  9 11  1  0
 11 12  1  0
 12 13  2  0
  2 14  1  0
 14 15  2  0
 14 16  1  0
 16 17  1  0
 17 18  1  0
 18 19  1  0
 19 20  1  0
 20 21  1  0
 21 22  2  0
 22 23  1  0
 23 24  2  0
 24 25  1  0
 24 26  1  0
 26 27  2  0
 19 28  1  0
 28 29  1  0
 13  4  1  0
 29 16  1  0
 12  7  1  0
 27 21  1  0
M  END
$$$$
