
     RDKit          3D

 23 24  0  0  0  0  0  0  0  0999 V2000
  -20.8428   38.4953  -26.8751 C   0  0  0  0  0  0  0  0  0  0  0  0
  -19.9541   37.5773  -26.0504 C   0  0  0  0  0  0  0  0  0  0  0  0
  -18.9162   38.2928  -25.4315 O   0  0  0  0  0  0  0  0  0  0  0  0
  -19.0908   39.0771  -24.3033 C   0  0  0  0  0  0  0  0  0  0  0  0
  -20.1855   38.9745  -23.7076 O   0  0  0  0  0  0  0  0  0  0  0  0
  -18.0817   39.9659  -23.8275 C   0  0  0  0  0  0  0  0  0  0  0  0
  -17.4434   40.7210  -24.7500 C   0  0  0  0  0  0  0  0  0  0  0  0
  -16.3973   41.6424  -24.2489 C   0  0  0  0  0  0  0  0  0  0  0  0
  -17.0631   42.5351  -23.2120 C   0  0  0  0  0  0  0  0  0  0  0  0
  -17.6676   41.7042  -22.1318 C   0  0  0  0  0  0  0  0  0  0  0  0
  -17.6210   40.1905  -22.4598 C   0  0  1  0  0  0  0  0  0  0  0  0
  -18.5015   39.3946  -21.1875 S   0  0  0  0  0  6  0  0  0  0  0  0
  -19.3942   40.4307  -20.5364 O   0  0  0  0  0  0  0  0  0  0  0  0
  -17.5163   39.0101  -20.0909 O   0  0  0  0  0  0  0  0  0  0  0  0
  -19.3659   38.0023  -21.6290 N   0  0  0  0  0  0  0  0  0  0  0  0
  -18.6625   36.7826  -21.8323 C   0  0  0  0  0  0  0  0  0  0  0  0
  -17.3085   36.6366  -21.6586 C   0  0  0  0  0  0  0  0  0  0  0  0
  -16.6809   35.4176  -21.8679 C   0  0  0  0  0  0  0  0  0  0  0  0
  -17.3661   34.2902  -22.2579 C   0  0  0  0  0  0  0  0  0  0  0  0
  -16.7183   33.1170  -22.4525 F   0  0  0  0  0  0  0  0  0  0  0  0
  -18.7234   34.4307  -22.4333 C   0  0  0  0  0  0  0  0  0  0  0  0
  -19.3596   35.6319  -22.2300 C   0  0  0  0  0  0  0  0  0  0  0  0
  -21.1074   35.7893  -22.4631 Cl  0  0  0  0  0  0  0  0  0  0  0  0
  1  2  1  0
  2  3  1  0
  3  4  1  0
  4  5  2  0
  4  6  1  0
  6  7  2  0
  7  8  1  0
  8  9  1  0
  9 10  1  0
 10 11  1  0
 11 12  1  1
 12 13  2  0
 12 14  2  0
 12 15  1  0
 15 16  1  0
 16 17  2  0
 17 18  1  0
 18 19  2  0
 19 20  1  0
 19 21  1  0
 21 22  2  0
 22 23  1  0
 11  6  1  0
 22 16  1  0
M  END
$$$$
