
     RDKit          3D

 33 36  0  0  0  0  0  0  0  0999 V2000
  -23.3655   20.7993  -32.6659 C   0  0  0  0  0  0  0  0  0  0  0  0
  -22.3321   20.4683  -33.6272 N   0  0  0  0  0  0  0  0  0  0  0  0
  -22.0458   21.4217  -34.6660 C   0  0  0  0  0  0  0  0  0  0  0  0
  -22.6914   21.0167  -35.9653 C   0  0  0  0  0  0  0  0  0  0  0  0
  -23.7507   20.1335  -35.9449 C   0  0  0  0  0  0  0  0  0  0  0  0
  -24.3419   19.7611  -37.1497 C   0  0  0  0  0  0  0  0  0  0  0  0
  -23.8829   20.2616  -38.3473 C   0  0  0  0  0  0  0  0  0  0  0  0
  -22.8251   21.1454  -38.3859 C   0  0  0  0  0  0  0  0  0  0  0  0
  -22.3186   21.6900  -39.6411 C   0  0  0  0  0  0  0  0  0  0  0  0
  -20.9884   21.6370  -40.0003 C   0  0  0  0  0  0  0  0  0  0  0  0
  -20.5209   22.1579  -41.1956 C   0  0  0  0  0  0  0  0  0  0  0  0
  -21.3785   22.7422  -42.0540 N   0  0  0  0  0  0  0  0  0  0  0  0
  -22.6735   22.8071  -41.7305 C   0  0  0  0  0  0  0  0  0  0  0  0
  -23.1803   22.2928  -40.5347 C   0  0  0  0  0  0  0  0  0  0  0  0
  -22.2555   21.4978  -37.1608 C   0  0  0  0  0  0  0  0  0  0  0  0
  -21.6596   19.2273  -33.4912 C   0  0  0  0  0  0  0  0  0  0  0  0
  -22.1556   18.2609  -32.8659 O   0  0  0  0  0  0  0  0  0  0  0  0
  -20.4115   19.0654  -34.0644 O   0  0  0  0  0  0  0  0  0  0  0  0
  -19.4430   18.2023  -33.6014 C   0  0  0  0  0  0  0  0  0  0  0  0
  -19.4075   16.8635  -33.8945 C   0  0  0  0  0  0  0  0  0  0  0  0
  -18.4103   16.0546  -33.3990 C   0  0  0  0  0  0  0  0  0  0  0  0
  -17.4362   16.5888  -32.6008 C   0  0  0  0  0  0  0  0  0  0  0  0
  -16.3747   15.7430  -32.0692 C   0  0  0  0  0  0  0  0  0  0  0  0
  -15.0956   15.7704  -32.5830 C   0  0  0  0  0  0  0  0  0  0  0  0
  -14.1147   14.9566  -32.0560 C   0  0  0  0  0  0  0  0  0  0  0  0
  -14.3836   14.0970  -31.0058 C   0  0  0  0  0  0  0  0  0  0  0  0
  -13.3384   13.2331  -30.4485 C   0  0  0  0  0  0  0  0  0  0  0  0
  -12.2623   12.7514  -31.2086 N   0  0  0  0  0  0  0  0  0  0  0  0
  -13.4069   12.9105  -29.2436 O   0  0  0  0  0  0  0  0  0  0  0  0
  -15.6606   14.0761  -30.4999 C   0  0  0  0  0  0  0  0  0  0  0  0
  -16.6588   14.8946  -31.0256 C   0  0  0  0  0  0  0  0  0  0  0  0
  -17.4352   17.9314  -32.2816 C   0  0  0  0  0  0  0  0  0  0  0  0
  -18.4494   18.7123  -32.7954 C   0  0  0  0  0  0  0  0  0  0  0  0
  1  2  1  0
  2  3  1  0
  3  4  1  0
  4  5  2  0
  5  6  1  0
  6  7  2  0
  7  8  1  0
  8  9  1  0
  9 10  2  0
 10 11  1  0
 11 12  2  0
 12 13  1  0
 13 14  2  0
  8 15  2  0
  2 16  1  0
 16 17  2  0
 16 18  1  0
 18 19  1  0
 19 20  2  0
 20 21  1  0
 21 22  2  0
 22 23  1  0
 23 24  2  0
 24 25  1  0
 25 26  2  0
 26 27  1  0
 27 28  1  0
 27 29  2  0
 26 30  1  0
 30 31  2  0
 22 32  1  0
 32 33  2  0
 15  4  1  0
 33 19  1  0
 14  9  1  0
 31 23  1  0
M  END
$$$$
