
     RDKit          3D

 33 36  0  0  0  0  0  0  0  0999 V2000
  -14.5053   17.3975  -35.9348 C   0  0  0  0  0  0  0  0  0  0  0  0
  -14.6131   17.5464  -37.4048 C   0  0  0  0  0  0  0  0  0  0  0  0
  -13.6600   17.7314  -38.2122 N   0  0  0  0  0  0  0  0  0  0  0  0
  -14.1366   17.8266  -39.5387 N   0  0  0  0  0  0  0  0  0  0  0  0
  -13.3024   18.0308  -40.6517 C   0  0  0  0  0  0  0  0  0  0  0  0
  -12.5493   16.9922  -41.1352 C   0  0  0  0  0  0  0  0  0  0  0  0
  -11.7245   17.1889  -42.2492 C   0  0  0  0  0  0  0  0  0  0  0  0
  -11.6691   18.4306  -42.8613 C   0  0  0  0  0  0  0  0  0  0  0  0
  -10.7978   18.6809  -44.0654 C   0  0  0  0  0  0  0  0  0  0  0  0
  -12.4139   19.4654  -42.3852 C   0  0  0  0  0  0  0  0  0  0  0  0
  -12.3525   20.7992  -43.0398 C   0  0  0  0  0  0  0  0  0  0  0  0
  -13.2214   19.2433  -41.2817 C   0  0  0  0  0  0  0  0  0  0  0  0
  -15.5427   17.6813  -39.5269 C   0  0  0  0  0  0  0  0  0  0  0  0
  -16.3164   17.7073  -40.4990 O   0  0  0  0  0  0  0  0  0  0  0  0
  -15.9046   17.4912  -38.1168 C   0  0  0  0  0  0  0  0  0  0  0  0
  -17.0624   17.3163  -37.6502 N   0  0  0  0  0  0  0  0  0  0  0  0
  -18.0315   18.3071  -37.7365 N   0  0  0  0  0  0  0  0  0  0  0  0
  -19.3974   17.8956  -37.5464 C   0  0  0  0  0  0  0  0  0  0  0  0
  -20.4011   18.2446  -38.4179 C   0  0  0  0  0  0  0  0  0  0  0  0
  -21.6929   17.8465  -38.1732 C   0  0  0  0  0  0  0  0  0  0  0  0
  -21.9763   17.0991  -37.0543 C   0  0  0  0  0  0  0  0  0  0  0  0
  -20.9830   16.7225  -36.1427 C   0  0  0  0  0  0  0  0  0  0  0  0
  -21.3737   15.9110  -35.0047 C   0  0  0  0  0  0  0  0  0  0  0  0
  -22.0007   14.6779  -35.1848 C   0  0  0  0  0  0  0  0  0  0  0  0
  -22.3607   13.8745  -34.1256 C   0  0  0  0  0  0  0  0  0  0  0  0
  -22.0946   14.2971  -32.8389 C   0  0  0  0  0  0  0  0  0  0  0  0
  -21.4724   15.5176  -32.6264 C   0  0  0  0  0  0  0  0  0  0  0  0
  -21.1984   15.9388  -31.2625 C   0  0  0  0  0  0  0  0  0  0  0  0
  -21.5192   15.1963  -30.2780 O   0  0  0  0  0  0  0  0  0  0  0  0
  -20.5862   17.1482  -31.0166 O   0  0  0  0  0  0  0  0  0  0  0  0
  -21.1262   16.2964  -33.7160 C   0  0  0  0  0  0  0  0  0  0  0  0
  -19.6996   17.1311  -36.4071 C   0  0  0  0  0  0  0  0  0  0  0  0
  -18.6919   16.7836  -35.5335 O   0  0  0  0  0  0  0  0  0  0  0  0
  1  2  1  0
  2  3  2  0
  3  4  1  0
  4  5  1  0
  5  6  2  0
  6  7  1  0
  7  8  2  0
  8  9  1  0
  8 10  1  0
 10 11  1  0
 10 12  2  0
  4 13  1  0
 13 14  2  0
 13 15  1  0
 15 16  2  0
 16 17  1  0
 17 18  1  0
 18 19  2  0
 19 20  1  0
 20 21  2  0
 21 22  1  0
 22 23  1  0
 23 24  2  0
 24 25  1  0
 25 26  2  0
 26 27  1  0
 27 28  1  0
 28 29  2  0
 28 30  1  0
 27 31  2  0
 22 32  2  0
 32 33  1  0
 15  2  1  0
 32 18  1  0
 12  5  1  0
 31 23  1  0
M  END
$$$$
