
     RDKit          3D

 17 19  0  0  0  0  0  0  0  0999 V2000
  -13.7592   46.4075  -20.0691 N   0  0  0  0  0  0  0  0  0  0  0  0
  -14.4219   45.5043  -20.4088 C   0  0  0  0  0  0  0  0  0  0  0  0
  -15.2379   44.4091  -20.8445 C   0  0  0  0  0  0  0  0  0  0  0  0
  -14.9515   43.1120  -20.4957 C   0  0  0  0  0  0  0  0  0  0  0  0
  -15.7628   42.0562  -20.9328 C   0  0  0  0  0  0  0  0  0  0  0  0
  -16.8584   42.3065  -21.7182 C   0  0  0  0  0  0  0  0  0  0  0  0
  -17.7052   41.2195  -22.1762 C   0  0  0  0  0  0  0  0  0  0  0  0
  -17.0001   40.2520  -23.1041 C   0  0  0  0  0  0  0  0  0  0  0  0
  -18.0462   39.3979  -23.7623 C   0  0  0  0  0  0  0  0  0  0  0  0
  -19.3010   39.3160  -22.9272 C   0  0  0  0  0  0  0  0  0  0  0  0
  -19.0172   39.3837  -21.4698 C   0  0  0  0  0  0  0  0  0  0  0  0
  -19.3675   38.7018  -20.3428 C   0  0  0  0  0  0  0  0  0  0  0  0
  -18.7456   39.2959  -19.3121 N   0  0  0  0  0  0  0  0  0  0  0  0
  -18.0055   40.3428  -19.7567 C   0  0  0  0  0  0  0  0  0  0  0  0
  -18.1871   40.3750  -21.0699 N   0  0  0  0  0  0  0  0  0  0  0  0
  -17.1338   43.6062  -22.0597 C   0  0  0  0  0  0  0  0  0  0  0  0
  -16.3370   44.6628  -21.6327 C   0  0  0  0  0  0  0  0  0  0  0  0
  1  2  3  0
  2  3  1  0
  3  4  2  0
  4  5  1  0
  5  6  2  0
  6  7  1  0
  7  8  1  0
  8  9  1  0
  9 10  1  0
 10 11  1  0
 11 12  2  0
 12 13  1  0
 13 14  2  0
 14 15  1  0
  6 16  1  0
 16 17  2  0
 17  3  1  0
 15  7  1  0
 15 11  1  0
M  END
$$$$
