
     RDKit          3D

 23 25  0  0  0  0  0  0  0  0999 V2000
  -19.6903   41.5176  -18.6008 N   0  0  0  0  0  0  0  0  0  0  0  0
  -18.7233   41.0322  -19.5241 C   0  0  0  0  0  0  0  0  0  0  0  0
  -17.5148   41.5942  -19.6962 N   0  0  0  0  0  0  0  0  0  0  0  0
  -16.6217   41.0890  -20.5967 C   0  0  0  0  0  0  0  0  0  0  0  0
  -16.9140   40.0101  -21.3472 N   0  0  0  0  0  0  0  0  0  0  0  0
  -18.1318   39.4138  -21.1989 C   0  0  0  0  0  0  0  0  0  0  0  0
  -19.0340   39.9275  -20.2864 C   0  0  0  0  0  0  0  0  0  0  0  0
  -20.1265   39.1567  -20.3514 N   0  0  0  0  0  0  0  0  0  0  0  0
  -19.9032   38.2020  -21.2724 C   0  0  0  0  0  0  0  0  0  0  0  0
  -18.6749   38.3508  -21.8022 N   0  0  0  0  0  0  0  0  0  0  0  0
  -18.1169   37.5032  -22.8117 C   0  0  2  0  0  0  0  0  0  0  0  0
  -18.8792   36.3583  -23.0491 O   0  0  0  0  0  0  0  0  0  0  0  0
  -17.9635   35.5959  -23.8066 C   0  0  2  0  0  0  0  0  0  0  0  0
  -18.4973   34.2286  -24.1143 C   0  0  0  0  0  0  0  0  0  0  0  0
  -18.1550   33.2829  -23.1832 O   0  0  0  0  0  0  0  0  0  0  0  0
  -19.3873   33.0160  -22.0778 P   0  0  0  0  0  5  0  0  0  0  0  0
  -20.4214   34.1252  -22.2875 O   0  0  0  0  0  0  0  0  0  0  0  0
  -18.8101   33.1603  -20.5125 O   0  0  0  0  0  0  0  0  0  0  0  0
  -20.1533   31.5321  -22.3231 O   0  0  0  0  0  0  0  0  0  0  0  0
  -16.8121   35.5583  -22.8219 C   0  0  1  0  0  0  0  0  0  0  0  0
  -15.6459   35.0750  -23.3910 O   0  0  0  0  0  0  0  0  0  0  0  0
  -16.7212   37.0363  -22.4949 C   0  0  1  0  0  0  0  0  0  0  0  0
  -15.7721   37.5812  -23.3668 O   0  0  0  0  0  0  0  0  0  0  0  0
  1  2  1  0
  2  3  2  0
  3  4  1  0
  4  5  2  0
  5  6  1  0
  6  7  2  0
  7  8  1  0
  8  9  2  0
  9 10  1  0
 11 10  1  1
 11 12  1  0
 12 13  1  0
 13 14  1  1
 14 15  1  0
 15 16  1  0
 16 17  2  0
 16 18  1  0
 16 19  1  0
 13 20  1  0
 20 21  1  6
 20 22  1  0
 22 23  1  6
  7  2  1  0
 22 11  1  0
 10  6  1  0
M  END
$$$$
