
     RDKit          3D

 19 22  0  0  0  0  0  0  0  0999 V2000
  -26.1048   16.1856  -27.0018 C   0  0  0  0  0  0  0  0  0  0  0  0
  -25.3047   16.1840  -25.7466 C   0  0  0  0  0  0  0  0  0  0  0  0
  -25.0017   17.1768  -24.9553 O   0  0  0  0  0  0  0  0  0  0  0  0
  -24.2683   16.7800  -23.9303 C   0  0  0  0  0  0  0  0  0  0  0  0
  -23.7095   17.4359  -22.8447 C   0  0  0  0  0  0  0  0  0  0  0  0
  -22.9656   16.7850  -21.8840 C   0  0  0  0  0  0  0  0  0  0  0  0
  -22.4429   17.4475  -20.8531 O   0  0  0  0  0  0  0  0  0  0  0  0
  -21.7356   16.8353  -19.9375 C   0  0  0  0  0  0  0  0  0  0  0  0
  -21.2444   17.4855  -18.9598 O   0  0  0  0  0  0  0  0  0  0  0  0
  -21.4846   15.4746  -19.9760 C   0  0  0  0  0  0  0  0  0  0  0  0
  -22.0223   14.7834  -21.0397 C   0  0  0  0  0  0  0  0  0  0  0  0
  -22.7656   15.4311  -22.0004 C   0  0  0  0  0  0  0  0  0  0  0  0
  -23.3178   14.7578  -23.0811 C   0  0  0  0  0  0  0  0  0  0  0  0
  -24.0608   15.4156  -24.0383 C   0  0  0  0  0  0  0  0  0  0  0  0
  -24.7232   15.0540  -25.1930 C   0  0  0  0  0  0  0  0  0  0  0  0
  -24.7812   13.6682  -25.7244 C   0  0  0  0  0  0  0  0  0  0  0  0
  -21.6745   13.3460  -20.9488 C   0  0  0  0  0  0  0  0  0  0  0  0
  -20.5114   13.3462  -19.9942 C   0  0  0  0  0  0  0  0  0  0  0  0
  -20.7276   14.5425  -19.0855 C   0  0  0  0  0  0  0  0  0  0  0  0
  1  2  1  0
  2  3  1  0
  3  4  1  0
  4  5  2  0
  5  6  1  0
  6  7  1  0
  7  8  1  0
  8  9  2  0
  8 10  1  0
 10 11  2  0
 11 12  1  0
 12 13  1  0
 13 14  2  0
 14 15  1  0
 15 16  1  0
 11 17  1  0
 17 18  1  0
 18 19  1  0
 15  2  2  0
 14  4  1  0
 12  6  2  0
 19 10  1  0
M  END
$$$$
