
     RDKit          3D

 28 28  0  0  0  0  0  0  0  0999 V2000
  -19.0997   33.1517  -21.9196 C   0  0  0  0  0  0  0  0  0  0  0  0
  -17.6636   33.5035  -22.0826 C   0  0  0  0  0  0  0  0  0  0  0  0
  -17.2736   34.9210  -21.9485 C   0  0  0  0  0  0  0  0  0  0  0  0
  -17.8556   35.9057  -22.8976 C   0  0  2  0  0  0  0  0  0  0  0  0
  -17.2348   37.2714  -22.5333 C   0  0  0  0  0  0  0  0  0  0  0  0
  -18.2991   37.8383  -21.6704 C   0  0  1  0  0  0  0  0  0  0  0  0
  -18.1541   39.2074  -21.2344 C   0  0  0  0  0  0  0  0  0  0  0  0
  -17.1246   39.4881  -20.5332 O   0  0  0  0  0  0  0  0  0  0  0  0
  -19.0317   40.2799  -21.4994 N   0  0  0  0  0  0  0  0  0  0  0  0
  -18.7910   41.6219  -21.0122 C   0  0  2  0  0  0  0  0  0  0  0  0
  -19.8421   41.9468  -20.0036 C   0  0  2  0  0  0  0  0  0  0  0  0
  -19.7329   40.9267  -18.8568 C   0  0  0  0  0  0  0  0  0  0  0  0
  -21.4903   41.6560  -20.6719 Cl  0  0  0  0  0  0  0  0  0  0  0  0
  -18.6087   42.6390  -22.0942 C   0  0  1  0  0  0  0  0  0  0  0  0
  -17.5429   42.3408  -22.9109 O   0  0  0  0  0  0  0  0  0  0  0  0
  -17.1169   43.3539  -23.7337 C   0  0  2  0  0  0  0  0  0  0  0  0
  -15.4487   43.8899  -23.3013 S   0  0  0  0  0  0  0  0  0  0  0  0
  -15.3238   44.6693  -21.6961 C   0  0  0  0  0  0  0  0  0  0  0  0
  -18.0877   44.4723  -23.8991 C   0  0  2  0  0  0  0  0  0  0  0  0
  -17.9591   45.4825  -22.9561 O   0  0  0  0  0  0  0  0  0  0  0  0
  -19.4778   43.9307  -23.9860 C   0  0  1  0  0  0  0  0  0  0  0  0
  -19.6610   43.4253  -25.2848 O   0  0  0  0  0  0  0  0  0  0  0  0
  -19.8122   42.9115  -22.9277 C   0  0  1  0  0  0  0  0  0  0  0  0
  -20.2949   41.7822  -23.5855 O   0  0  0  0  0  0  0  0  0  0  0  0
  -19.4749   37.5838  -22.4820 N   0  0  0  0  0  0  0  0  0  0  0  0
  -19.3642   38.0956  -23.8178 C   0  0  0  0  0  0  0  0  0  0  0  0
  -19.3224   36.1071  -22.6054 C   0  0  0  0  0  0  0  0  0  0  0  0
  -18.5605   39.1486  -22.2363 Cl  0  0  0  0  0  0  0  0  0  0  0  0
  1  2  1  0
  2  3  1  0
  4  3  1  1
  4  5  1  0
  5  6  1  0
  6  7  1  6
  7  8  2  0
  7  9  1  0
 10  9  1  6
 10 11  1  0
 11 12  1  1
 11 13  1  0
 10 14  1  0
 14 15  1  6
 15 16  1  0
 16 17  1  1
 17 18  1  0
 16 19  1  0
 19 20  1  1
 19 21  1  0
 21 22  1  6
 21 23  1  0
 23 24  1  6
  6 25  1  0
 25 26  1  0
 25 27  1  0
 27  4  1  0
 23 14  1  0
M  END
$$$$
