
     RDKit          3D

 61 68  0  0  0  0  0  0  0  0999 V2000
  -28.6970    4.6304  -26.3559 C   0  0  0  0  0  0  0  0  0  0  0  0
  -28.6918    5.7521  -27.3505 C   0  0  0  0  0  0  0  0  0  0  0  0
  -29.9329    6.6249  -26.9905 C   0  0  0  0  0  0  0  0  0  0  0  0
  -27.4622    6.5480  -27.2128 C   0  0  0  0  0  0  0  0  0  0  0  0
  -27.4161    7.7494  -28.2963 C   0  0  0  0  0  0  0  0  0  0  0  0
  -28.4871    7.3475  -29.1982 C   0  0  0  0  0  0  0  0  0  0  0  0
  -28.5492    8.4824  -30.2785 C   0  0  0  0  0  0  0  0  0  0  0  0
  -28.1886    9.7112  -29.7240 N   0  0  0  0  0  0  0  0  0  0  0  0
  -28.9237   10.3613  -28.7510 C   0  0  0  0  0  0  0  0  0  0  0  0
  -28.0583   11.5406  -28.1327 C   0  0  0  0  0  0  0  0  0  0  0  0
  -27.0960   11.9362  -29.1112 N   0  0  0  0  0  0  0  0  0  0  0  0
  -27.0299   13.1084  -29.9141 C   0  0  0  0  0  0  0  0  0  0  0  0
  -27.8712   13.2227  -31.0344 C   0  0  0  0  0  0  0  0  0  0  0  0
  -27.7082   14.2698  -31.9056 C   0  0  0  0  0  0  0  0  0  0  0  0
  -26.7375   15.1923  -31.7284 C   0  0  0  0  0  0  0  0  0  0  0  0
  -26.5368   16.3034  -32.7014 C   0  0  0  0  0  0  0  0  0  0  0  0
  -27.3309   17.2160  -32.7677 O   0  0  0  0  0  0  0  0  0  0  0  0
  -25.4761   16.2794  -33.6524 N   0  0  0  0  0  0  0  0  0  0  0  0
  -24.1519   17.2209  -33.8900 S   0  0  0  0  0  6  0  0  0  0  0  0
  -24.3305   18.5011  -32.9430 O   0  0  0  0  0  0  0  0  0  0  0  0
  -24.3203   17.9295  -35.2607 O   0  0  0  0  0  0  0  0  0  0  0  0
  -22.5147   16.6691  -33.7372 C   0  0  0  0  0  0  0  0  0  0  0  0
  -21.9664   15.8560  -34.6319 C   0  0  0  0  0  0  0  0  0  0  0  0
  -20.5633   15.8273  -34.7363 C   0  0  0  0  0  0  0  0  0  0  0  0
  -19.7777   16.5561  -33.9835 C   0  0  0  0  0  0  0  0  0  0  0  0
  -18.3415   16.8320  -33.9764 N   0  0  0  0  0  0  0  0  0  0  0  0
  -17.0970   17.0692  -33.9701 C   0  0  0  0  0  0  0  0  0  0  0  0
  -16.2080   17.2886  -32.7792 C   0  0  0  0  0  0  0  0  0  0  0  0
  -15.5987   18.6676  -33.0271 C   0  0  0  0  0  0  0  0  0  0  0  0
  -14.1426   18.8262  -32.7397 C   0  0  0  0  0  0  0  0  0  0  0  0
  -13.4517   17.7317  -33.3232 O   0  0  0  0  0  0  0  0  0  0  0  0
  -13.8148   16.6860  -32.4125 C   0  0  0  0  0  0  0  0  0  0  0  0
  -15.1800   16.2159  -32.7530 C   0  0  0  0  0  0  0  0  0  0  0  0
  -20.2542   17.4547  -32.9609 C   0  0  0  0  0  0  0  0  0  0  0  0
  -19.4371   18.1744  -32.1905 N   0  0  0  0  0  4  0  0  0  0  0  0
  -19.4149   19.4612  -33.2015 O   0  0  0  0  0  0  0  0  0  0  0  0
  -18.6964   18.7513  -31.4019 O   0  0  0  0  0  1  0  0  0  0  0  0
  -21.6450   17.4651  -32.8725 C   0  0  0  0  0  0  0  0  0  0  0  0
  -25.9385   15.0505  -30.6533 C   0  0  0  0  0  0  0  0  0  0  0  0
  -24.8808   15.9627  -30.4628 O   0  0  0  0  0  0  0  0  0  0  0  0
  -24.6717   16.9261  -29.5191 C   0  0  0  0  0  0  0  0  0  0  0  0
  -24.6360   16.6727  -28.1994 C   0  0  0  0  0  0  0  0  0  0  0  0
  -24.3834   17.6668  -27.3634 N   0  0  0  0  0  0  0  0  0  0  0  0
  -24.1753   18.9518  -27.7917 C   0  0  0  0  0  0  0  0  0  0  0  0
  -23.9553   20.1207  -27.1189 N   0  0  0  0  0  0  0  0  0  0  0  0
  -23.8597   21.1137  -28.0802 C   0  0  0  0  0  0  0  0  0  0  0  0
  -24.0608   20.5873  -29.2588 C   0  0  0  0  0  0  0  0  0  0  0  0
  -24.2406   19.2416  -29.1405 C   0  0  0  0  0  0  0  0  0  0  0  0
  -24.4840   18.2157  -30.0624 C   0  0  0  0  0  0  0  0  0  0  0  0
  -26.0624   14.0343  -29.7271 C   0  0  0  0  0  0  0  0  0  0  0  0
  -26.0514   10.9056  -29.3680 C   0  0  0  0  0  0  0  0  0  0  0  0
  -26.7718    9.5665  -29.2703 C   0  0  0  0  0  0  0  0  0  0  0  0
  -29.1213    6.3160  -29.5998 C   0  0  0  0  0  0  0  0  0  0  0  0
  -30.2184    6.6275  -30.5113 C   0  0  0  0  0  0  0  0  0  0  0  0
  -31.3540    7.2721  -30.1491 C   0  0  0  0  0  0  0  0  0  0  0  0
  -32.2687    7.7860  -31.1077 C   0  0  0  0  0  0  0  0  0  0  0  0
  -31.9999    7.6235  -32.4667 C   0  0  0  0  0  0  0  0  0  0  0  0
  -32.9492    8.3926  -33.7318 Cl  0  0  0  0  0  0  0  0  0  0  0  0
  -30.8903    6.9260  -32.7883 C   0  0  0  0  0  0  0  0  0  0  0  0
  -29.9917    6.4279  -31.8819 C   0  0  0  0  0  0  0  0  0  0  0  0
  -28.9143    5.1136  -28.7355 C   0  0  0  0  0  0  0  0  0  0  0  0
  1  2  1  0
  2  3  1  0
  2  4  1  0
  4  5  1  0
  5  6  1  0
  6  7  1  0
  7  8  1  0
  8  9  1  0
  9 10  1  0
 10 11  1  0
 11 12  1  0
 12 13  2  0
 13 14  1  0
 14 15  2  0
 15 16  1  0
 16 17  2  0
 16 18  1  0
 18 19  1  0
 19 20  2  0
 19 21  2  0
 19 22  1  0
 22 23  2  0
 23 24  1  0
 24 25  2  0
 25 26  1  0
 26 27  1  0
 27 28  1  0
 28 29  1  0
 29 30  1  0
 30 31  1  0
 31 32  1  0
 32 33  1  0
 25 34  1  0
 34 35  1  0
 35 36  2  0
 35 37  1  0
 34 38  2  0
 15 39  1  0
 39 40  1  0
 40 41  1  0
 41 42  2  0
 42 43  1  0
 43 44  2  0
 44 45  1  0
 45 46  1  0
 46 47  2  0
 47 48  1  0
 48 49  2  0
 39 50  2  0
 11 51  1  0
 51 52  1  0
  6 53  2  0
 53 54  1  0
 54 55  2  0
 55 56  1  0
 56 57  2  0
 57 58  1  0
 57 59  1  0
 59 60  2  0
 53 61  1  0
 61  2  1  0
 52  8  1  0
 60 54  1  0
 50 12  1  0
 38 22  1  0
 49 41  1  0
 33 28  1  0
 48 44  1  0
M  CHG  2  35   1  37  -1
M  END
$$$$
