
     RDKit          3D

 34 37  0  0  0  0  0  0  0  0999 V2000
  -22.2378   38.9180  -27.1748 C   0  0  0  0  0  0  0  0  0  0  0  0
  -21.0856   38.7537  -26.1780 C   0  0  0  0  0  0  0  0  0  0  0  0
  -20.3909   37.4126  -26.4111 C   0  0  0  0  0  0  0  0  0  0  0  0
  -21.6717   38.7884  -24.7882 C   0  0  0  0  0  0  0  0  0  0  0  0
  -20.6409   39.1490  -23.8038 C   0  0  0  0  0  0  0  0  0  0  0  0
  -19.9771   40.2964  -23.9976 C   0  0  0  0  0  0  0  0  0  0  0  0
  -18.9284   40.7847  -23.1122 C   0  0  0  0  0  0  0  0  0  0  0  0
  -18.6799   42.1094  -22.9673 N   0  0  0  0  0  0  0  0  0  0  0  0
  -17.6526   42.6180  -22.2663 C   0  0  0  0  0  0  0  0  0  0  0  0
  -17.3574   44.0311  -22.1638 C   0  0  0  0  0  0  0  0  0  0  0  0
  -15.9281   44.4705  -22.2945 C   0  0  0  0  0  0  0  0  0  0  0  0
  -15.8469   45.8889  -21.7643 C   0  0  0  0  0  0  0  0  0  0  0  0
  -15.7289   45.8613  -20.2473 C   0  0  0  0  0  0  0  0  0  0  0  0
  -14.5346   46.5363  -22.2701 C   0  0  0  0  0  0  0  0  0  0  0  0
  -16.8331   46.6828  -22.1848 O   0  0  0  0  0  0  0  0  0  0  0  0
  -17.9839   46.3602  -22.7795 C   0  0  0  0  0  0  0  0  0  0  0  0
  -19.1158   46.8569  -21.8506 C   0  0  0  0  0  0  0  0  0  0  0  0
  -18.1281   47.1776  -24.0443 C   0  0  0  0  0  0  0  0  0  0  0  0
  -18.2269   44.9036  -23.0772 C   0  0  0  0  0  0  0  0  0  0  0  0
  -16.7928   41.7232  -21.6583 C   0  0  0  0  0  0  0  0  0  0  0  0
  -16.9926   40.3712  -21.7721 C   0  0  0  0  0  0  0  0  0  0  0  0
  -18.0664   39.9199  -22.5046 C   0  0  0  0  0  0  0  0  0  0  0  0
  -18.0398   38.4948  -22.7477 N   0  0  0  0  0  0  0  0  0  0  0  0
  -17.9899   37.6466  -21.5998 C   0  0  0  0  0  0  0  0  0  0  0  0
  -17.7009   38.2894  -20.5238 O   0  0  0  0  0  0  0  0  0  0  0  0
  -18.2171   36.2288  -21.5217 C   0  0  0  0  0  0  0  0  0  0  0  0
  -17.6897   35.2535  -20.7923 N   0  0  0  0  0  0  0  0  0  0  0  0
  -18.2487   34.0458  -21.1249 C   0  0  0  0  0  0  0  0  0  0  0  0
  -19.1360   34.2847  -22.0824 C   0  0  0  0  0  0  0  0  0  0  0  0
  -20.0418   33.3628  -22.7941 C   0  0  0  0  0  0  0  0  0  0  0  0
  -20.7331   32.6441  -23.3247 N   0  0  0  0  0  0  0  0  0  0  0  0
  -19.1183   35.6306  -22.3294 N   0  0  0  0  0  0  0  0  0  0  0  0
  -20.3161   40.9644  -25.3037 C   0  0  0  0  0  0  0  0  0  0  0  0
  -20.0889   39.8619  -26.3671 C   0  0  0  0  0  0  0  0  0  0  0  0
  1  2  1  0
  2  3  1  0
  2  4  1  0
  4  5  1  0
  5  6  2  0
  6  7  1  0
  7  8  2  0
  8  9  1  0
  9 10  1  0
 10 11  1  0
 11 12  1  0
 12 13  1  0
 12 14  1  0
 12 15  1  0
 15 16  1  0
 16 17  1  0
 16 18  1  0
 16 19  1  0
  9 20  2  0
 20 21  1  0
 21 22  2  0
 22 23  1  0
 23 24  1  0
 24 25  2  0
 24 26  1  0
 26 27  2  0
 27 28  1  0
 28 29  2  0
 29 30  1  0
 30 31  3  0
 29 32  1  0
  6 33  1  0
 33 34  1  0
 34  2  1  0
 22  7  1  0
 32 26  1  0
 19 10  1  0
M  END
$$$$
