
     RDKit          3D

 35 37  0  0  0  0  0  0  0  0999 V2000
  -19.5735   40.8550  -23.5857 C   0  0  0  0  0  0  0  0  0  0  0  0
  -18.4089   40.0378  -24.0235 C   0  0  0  0  0  0  0  0  0  0  0  0
  -18.5654   38.6150  -23.9084 N   0  0  0  0  0  0  0  0  0  0  0  0
  -19.5951   37.9271  -24.4818 C   0  0  0  0  0  0  0  0  0  0  0  0
  -20.8099   37.9653  -24.1845 O   0  0  0  0  0  0  0  0  0  0  0  0
  -19.4059   36.9284  -25.6563 C   0  0  0  0  0  0  0  0  0  0  0  0
  -20.5777   36.4909  -26.1566 O   0  0  0  0  0  0  0  0  0  0  0  0
  -17.6747   37.8737  -22.9934 C   0  0  1  0  0  0  0  0  0  0  0  0
  -17.0318   38.9378  -22.0025 C   0  0  0  0  0  0  0  0  0  0  0  0
  -18.1866   39.0317  -21.0865 N   0  0  0  0  0  0  0  0  0  0  0  0
  -18.6809   40.2663  -20.5863 C   0  0  0  0  0  0  0  0  0  0  0  0
  -17.8595   41.0980  -20.0830 N   0  0  0  0  0  0  0  0  0  0  0  0
  -17.0428   42.0744  -20.6120 C   0  0  0  0  0  0  0  0  0  0  0  0
  -17.2217   42.5009  -21.9208 C   0  0  0  0  0  0  0  0  0  0  0  0
  -16.3414   43.4481  -22.4225 C   0  0  0  0  0  0  0  0  0  0  0  0
  -15.3053   43.9332  -21.5798 C   0  0  0  0  0  0  0  0  0  0  0  0
  -15.1657   43.5057  -20.3368 C   0  0  0  0  0  0  0  0  0  0  0  0
  -14.1217   44.0005  -19.5189 O   0  0  0  0  0  0  0  0  0  0  0  0
  -12.9414   43.3277  -19.2807 C   0  0  0  0  0  0  0  0  0  0  0  0
  -12.1682   43.8410  -18.2647 F   0  0  0  0  0  0  0  0  0  0  0  0
  -12.1280   43.5080  -20.4672 F   0  0  0  0  0  0  0  0  0  0  0  0
  -16.0292   42.5643  -19.8239 C   0  0  0  0  0  0  0  0  0  0  0  0
  -20.0563   40.6361  -20.5365 N   0  0  0  0  0  0  0  0  0  0  0  0
  -20.5914   40.5602  -19.1624 C   0  0  0  0  0  0  0  0  0  0  0  0
  -20.9993   40.5184  -18.1093 N   0  0  0  0  0  0  0  0  0  0  0  0
  -18.5896   37.7139  -20.9612 N   0  0  0  0  0  0  0  0  0  0  0  0
  -18.3169   37.0145  -22.0251 C   0  0  0  0  0  0  0  0  0  0  0  0
  -18.6290   35.6028  -22.1847 C   0  0  0  0  0  0  0  0  0  0  0  0
  -18.4957   34.8174  -23.2515 C   0  0  0  0  0  0  0  0  0  0  0  0
  -18.7154   33.4966  -23.3538 C   0  0  0  0  0  0  0  0  0  0  0  0
  -19.1528   32.7718  -22.2102 C   0  0  0  0  0  0  0  0  0  0  0  0
  -19.4507   31.0809  -22.1864 Cl  0  0  0  0  0  0  0  0  0  0  0  0
  -19.2994   33.5731  -21.0987 C   0  0  0  0  0  0  0  0  0  0  0  0
  -19.8617   32.7063  -19.6288 Cl  0  0  0  0  0  0  0  0  0  0  0  0
  -19.0777   34.8938  -21.0096 C   0  0  0  0  0  0  0  0  0  0  0  0
  1  2  1  0
  2  3  1  0
  3  4  1  0
  4  5  2  0
  4  6  1  0
  6  7  1  0
  8  3  1  6
  8  9  1  0
  9 10  1  0
 10 11  1  0
 11 12  2  0
 12 13  1  0
 13 14  2  0
 14 15  1  0
 15 16  2  0
 16 17  1  0
 17 18  1  0
 18 19  1  0
 19 20  1  0
 19 21  1  0
 17 22  2  0
 11 23  1  0
 23 24  1  0
 24 25  3  0
 10 26  1  0
 26 27  2  0
 27 28  1  0
 28 29  2  0
 29 30  1  0
 30 31  2  0
 31 32  1  0
 31 33  1  0
 33 34  1  0
 33 35  2  0
 27  8  1  0
 35 28  1  0
 22 13  1  0
M  END
$$$$
