
     RDKit          3D

 34 37  0  0  0  0  0  0  0  0999 V2000
  -19.6361   18.8276  -36.0917 C   0  0  0  0  0  0  0  0  0  0  0  0
  -18.2827   18.8744  -36.7535 C   0  0  0  0  0  0  0  0  0  0  0  0
  -18.0048   19.4409  -37.9700 C   0  0  0  0  0  0  0  0  0  0  0  0
  -18.9790   20.1043  -38.8643 C   0  0  0  0  0  0  0  0  0  0  0  0
  -20.2203   19.9655  -38.7346 O   0  0  0  0  0  0  0  0  0  0  0  0
  -18.5191   20.9445  -39.9268 N   0  0  0  0  0  0  0  0  0  0  0  0
  -19.3567   21.7191  -40.7540 C   0  0  0  0  0  0  0  0  0  0  0  0
  -19.0949   23.0668  -40.8784 C   0  0  0  0  0  0  0  0  0  0  0  0
  -19.8718   23.8723  -41.6646 C   0  0  0  0  0  0  0  0  0  0  0  0
  -20.9380   23.3116  -42.3427 C   0  0  0  0  0  0  0  0  0  0  0  0
  -21.2165   21.9623  -42.2312 C   0  0  0  0  0  0  0  0  0  0  0  0
  -22.3745   21.4410  -42.9922 C   0  0  0  0  0  0  0  0  0  0  0  0
  -22.9562   22.4005  -43.7838 F   0  0  0  0  0  0  0  0  0  0  0  0
  -21.9639   20.3838  -43.8153 F   0  0  0  0  0  0  0  0  0  0  0  0
  -23.3241   20.8882  -42.1354 F   0  0  0  0  0  0  0  0  0  0  0  0
  -20.4184   21.1843  -41.4355 C   0  0  0  0  0  0  0  0  0  0  0  0
  -16.6675   19.2578  -38.1864 C   0  0  0  0  0  0  0  0  0  0  0  0
  -16.0970   18.5712  -37.0993 C   0  0  0  0  0  0  0  0  0  0  0  0
  -14.6904   18.1802  -37.0522 C   0  0  0  0  0  0  0  0  0  0  0  0
  -14.3510   16.9248  -37.5901 C   0  0  0  0  0  0  0  0  0  0  0  0
  -13.0574   16.4624  -37.6091 C   0  0  0  0  0  0  0  0  0  0  0  0
  -12.0577   17.2512  -37.0852 C   0  0  0  0  0  0  0  0  0  0  0  0
  -12.3452   18.4792  -36.5524 C   0  0  0  0  0  0  0  0  0  0  0  0
  -13.6585   18.9126  -36.5511 C   0  0  0  0  0  0  0  0  0  0  0  0
  -17.1149   18.3600  -36.2547 N   0  0  0  0  0  0  0  0  0  0  0  0
  -17.0905   17.6949  -34.9916 C   0  0  0  0  0  0  0  0  0  0  0  0
  -17.5396   16.2826  -34.9498 C   0  0  0  0  0  0  0  0  0  0  0  0
  -17.5061   15.7276  -33.5229 C   0  0  0  0  0  0  0  0  0  0  0  0
  -17.8248   14.3348  -33.4784 N   0  0  0  0  0  0  0  0  0  0  0  0
  -18.2107   13.9014  -32.1613 C   0  0  0  0  0  0  0  0  0  0  0  0
  -19.4104   12.9788  -32.3096 C   0  0  0  0  0  0  0  0  0  0  0  0
  -20.4727   13.6838  -32.8142 O   0  0  0  0  0  0  0  0  0  0  0  0
  -20.2076   14.2506  -34.0387 C   0  0  0  0  0  0  0  0  0  0  0  0
  -18.7786   13.9460  -34.4862 C   0  0  0  0  0  0  0  0  0  0  0  0
  1  2  1  0
  2  3  2  0
  3  4  1  0
  4  5  2  0
  4  6  1  0
  6  7  1  0
  7  8  2  0
  8  9  1  0
  9 10  2  0
 10 11  1  0
 11 12  1  0
 12 13  1  0
 12 14  1  0
 12 15  1  0
 11 16  2  0
  3 17  1  0
 17 18  2  0
 18 19  1  0
 19 20  2  0
 20 21  1  0
 21 22  2  0
 22 23  1  0
 23 24  2  0
 18 25  1  0
 25 26  1  0
 26 27  1  0
 27 28  1  0
 28 29  1  0
 29 30  1  0
 30 31  1  0
 31 32  1  0
 32 33  1  0
 33 34  1  0
 25  2  1  0
 34 29  1  0
 16  7  1  0
 24 19  1  0
M  END
$$$$
