
     RDKit          3D

 20 22  0  0  0  0  0  0  0  0999 V2000
  -23.1396   33.3953  -22.4878 C   0  0  0  0  0  0  0  0  0  0  0  0
  -22.2894   32.2491  -22.2549 N   0  0  0  0  0  0  0  0  0  0  0  0
  -20.8854   32.3796  -22.1732 C   0  0  0  0  0  0  0  0  0  0  0  0
  -20.3467   33.6719  -22.1821 C   0  0  0  0  0  0  0  0  0  0  0  0
  -18.9974   33.8431  -22.1032 C   0  0  0  0  0  0  0  0  0  0  0  0
  -18.4064   35.0933  -22.1057 C   0  0  0  0  0  0  0  0  0  0  0  0
  -19.1837   36.2509  -22.1836 N   0  0  0  0  0  0  0  0  0  0  0  0
  -18.6980   37.5911  -22.2622 C   0  0  0  0  0  0  0  0  0  0  0  0
  -17.8573   38.1716  -21.3425 C   0  0  0  0  0  0  0  0  0  0  0  0
  -17.4386   39.5022  -21.4831 C   0  0  0  0  0  0  0  0  0  0  0  0
  -17.8410   40.2889  -22.5358 C   0  0  0  0  0  0  0  0  0  0  0  0
  -18.6823   39.7180  -23.4633 C   0  0  0  0  0  0  0  0  0  0  0  0
  -19.2667   40.7723  -24.9449 Br  0  0  0  0  0  0  0  0  0  0  0  0
  -19.0904   38.4129  -23.3209 C   0  0  0  0  0  0  0  0  0  0  0  0
  -17.0644   35.1106  -22.0203 N   0  0  0  0  0  0  0  0  0  0  0  0
  -16.2917   34.0182  -21.9358 C   0  0  0  0  0  0  0  0  0  0  0  0
  -16.8807   32.8230  -21.9351 N   0  0  0  0  0  0  0  0  0  0  0  0
  -18.2119   32.6875  -22.0158 C   0  0  0  0  0  0  0  0  0  0  0  0
  -18.7540   31.4205  -22.0083 C   0  0  0  0  0  0  0  0  0  0  0  0
  -20.0911   31.2967  -22.0879 N   0  0  0  0  0  0  0  0  0  0  0  0
  1  2  1  0
  2  3  1  0
  3  4  2  0
  4  5  1  0
  5  6  2  0
  6  7  1  0
  7  8  1  0
  8  9  2  0
  9 10  1  0
 10 11  2  0
 11 12  1  0
 12 13  1  0
 12 14  2  0
  6 15  1  0
 15 16  2  0
 16 17  1  0
 17 18  2  0
 18 19  1  0
 19 20  2  0
 20  3  1  0
 18  5  1  0
 14  8  1  0
M  END
$$$$
