
     RDKit          3D

 16 18  0  0  0  0  0  0  0  0999 V2000
   -5.1479    5.9749  -44.7966 O   0  0  0  0  0  0  0  0  0  0  0  0
   -4.3006    5.5538  -43.9558 C   0  0  0  0  0  0  0  0  0  0  0  0
   -4.2479    6.1000  -42.6113 C   0  0  0  0  0  0  0  0  0  0  0  0
   -5.0471    7.0157  -42.2341 O   0  0  0  0  0  0  0  0  0  0  0  0
   -3.2897    5.6451  -41.6122 C   0  0  0  0  0  0  0  0  0  0  0  0
   -3.2586    6.1817  -40.3351 C   0  0  0  0  0  0  0  0  0  0  0  0
   -2.3412    5.7330  -39.4082 C   0  0  0  0  0  0  0  0  0  0  0  0
   -1.4677    4.7451  -39.7914 C   0  0  0  0  0  0  0  0  0  0  0  0
   -1.5004    4.2061  -41.0772 C   0  0  0  0  0  0  0  0  0  0  0  0
   -2.4075    4.6375  -42.0213 C   0  0  0  0  0  0  0  0  0  0  0  0
   -2.4359    4.0713  -43.3594 C   0  0  0  0  0  0  0  0  0  0  0  0
   -1.5619    3.0819  -43.7448 C   0  0  0  0  0  0  0  0  0  0  0  0
   -1.5854    2.5365  -45.0257 C   0  0  0  0  0  0  0  0  0  0  0  0
   -2.4911    2.9725  -45.9563 C   0  0  0  0  0  0  0  0  0  0  0  0
   -3.3809    3.9617  -45.6047 C   0  0  0  0  0  0  0  0  0  0  0  0
   -3.3549    4.5082  -44.3161 C   0  0  0  0  0  0  0  0  0  0  0  0
  1  2  2  0
  2  3  1  0
  3  4  2  0
  3  5  1  0
  5  6  2  0
  6  7  1  0
  7  8  2  0
  8  9  1  0
  9 10  2  0
 10 11  1  0
 11 12  2  0
 12 13  1  0
 13 14  2  0
 14 15  1  0
 15 16  2  0
 16  2  1  0
 10  5  1  0
 16 11  1  0
M  END
$$$$
