
     RDKit          3D

 14 14  0  0  0  0  0  0  0  0999 V2000
  -16.6108   36.9359  -23.7931 O   0  0  0  0  0  0  0  0  0  0  0  0
  -16.7325   37.4047  -22.6449 N   0  0  0  0  0  4  0  0  0  0  0  0
  -16.3481   36.5999  -21.6011 O   0  0  0  0  0  1  0  0  0  0  0  0
  -17.2418   38.7054  -22.3937 C   0  0  0  0  0  0  0  0  0  0  0  0
  -17.3069   39.6349  -23.4064 C   0  0  0  0  0  0  0  0  0  0  0  0
  -17.8086   40.9155  -23.1524 C   0  0  0  0  0  0  0  0  0  0  0  0
  -17.8745   41.8542  -24.1732 O   0  0  0  0  0  0  0  0  0  0  0  0
  -18.2291   41.2077  -21.8697 C   0  0  0  0  0  0  0  0  0  0  0  0
  -18.7249   42.4665  -21.6110 O   0  0  0  0  0  0  0  0  0  0  0  0
  -18.1759   40.3009  -20.8400 C   0  0  0  0  0  0  0  0  0  0  0  0
  -18.6310   40.6841  -19.5517 N   0  0  0  0  0  4  0  0  0  0  0  0
  -19.0388   41.8607  -19.4299 O   0  0  0  0  0  0  0  0  0  0  0  0
  -18.6332   39.8265  -18.4807 O   0  0  0  0  0  1  0  0  0  0  0  0
  -17.6751   39.0406  -21.1184 C   0  0  0  0  0  0  0  0  0  0  0  0
  1  2  2  0
  2  3  1  0
  2  4  1  0
  4  5  2  0
  5  6  1  0
  6  7  1  0
  6  8  2  0
  8  9  1  0
  8 10  1  0
 10 11  1  0
 11 12  2  0
 11 13  1  0
 10 14  2  0
 14  4  1  0
M  CHG  4   2   1   3  -1  11   1  13  -1
M  END
$$$$
