
     RDKit          3D

 27 30  0  0  0  0  0  0  0  0999 V2000
  -18.5572   48.0812  -22.8708 C   0  0  0  0  0  0  0  0  0  0  0  0
  -17.6320   46.9274  -23.0481 C   0  0  0  0  0  0  0  0  0  0  0  0
  -18.0418   45.6999  -22.1703 C   0  0  0  0  0  0  0  0  0  0  0  0
  -17.2090   45.7524  -20.9309 C   0  0  0  0  0  0  0  0  0  0  0  0
  -15.8524   46.3238  -21.1271 C   0  0  0  0  0  0  0  0  0  0  0  0
  -17.8511   44.4754  -22.9921 C   0  0  0  0  0  0  0  0  0  0  0  0
  -17.7519   43.1826  -22.2992 C   0  0  0  0  0  0  0  0  0  0  0  0
  -18.8119   42.3359  -22.0658 C   0  0  0  0  0  0  0  0  0  0  0  0
  -18.6685   41.1173  -21.4392 C   0  0  0  0  0  0  0  0  0  0  0  0
  -17.4423   40.6799  -21.0094 C   0  0  0  0  0  0  0  0  0  0  0  0
  -17.2040   39.4511  -20.3279 N   0  0  0  0  0  0  0  0  0  0  0  0
  -17.7582   38.2658  -20.8420 C   0  0  0  0  0  0  0  0  0  0  0  0
  -17.9402   37.0931  -20.6772 N   0  0  0  0  0  0  0  0  0  0  0  0
  -18.5221   36.2136  -21.4408 C   0  0  0  0  0  0  0  0  0  0  0  0
  -18.7194   34.8502  -21.2103 C   0  0  0  0  0  0  0  0  0  0  0  0
  -19.3646   34.0694  -22.1357 C   0  0  0  0  0  0  0  0  0  0  0  0
  -19.8517   34.5391  -23.3180 C   0  0  0  0  0  0  0  0  0  0  0  0
  -19.6704   35.8934  -23.5755 C   0  0  0  0  0  0  0  0  0  0  0  0
  -19.0244   36.6874  -22.6538 C   0  0  0  0  0  0  0  0  0  0  0  0
  -18.5940   38.4207  -22.5734 S   0  0  0  0  0  0  0  0  0  0  0  0
  -16.3450   41.5298  -21.2380 C   0  0  0  0  0  0  0  0  0  0  0  0
  -16.5077   42.7281  -21.8577 C   0  0  0  0  0  0  0  0  0  0  0  0
  -18.8658   44.3838  -24.0545 N   0  0  0  0  0  0  0  0  0  0  0  0
  -18.7423   43.7997  -25.2356 C   0  0  0  0  0  0  0  0  0  0  0  0
  -19.9050   43.9305  -25.8922 N   0  0  0  0  0  0  0  0  0  0  0  0
  -20.7274   44.6028  -25.0839 C   0  0  0  0  0  0  0  0  0  0  0  0
  -20.0784   44.8762  -23.9602 N   0  0  0  0  0  0  0  0  0  0  0  0
  1  2  1  0
  2  3  1  0
  3  4  1  0
  4  5  1  0
  3  6  1  0
  6  7  1  0
  7  8  2  0
  8  9  1  0
  9 10  2  0
 10 11  1  0
 11 12  1  0
 12 13  2  0
 13 14  1  0
 14 15  2  0
 15 16  1  0
 16 17  2  0
 17 18  1  0
 18 19  2  0
 19 20  1  0
 10 21  1  0
 21 22  2  0
  6 23  1  0
 23 24  1  0
 24 25  2  0
 25 26  1  0
 26 27  2  0
 22  7  1  0
 27 23  1  0
 20 12  1  0
 19 14  1  0
M  END
$$$$
