
     RDKit          3D

 21 23  0  0  0  0  0  0  0  0999 V2000
  -16.4991   20.1418  -42.9397 C   0  0  0  0  0  0  0  0  0  0  0  0
  -17.5778   20.6237  -43.7312 O   0  0  0  0  0  0  0  0  0  0  0  0
  -18.6675   21.2374  -43.1403 C   0  0  0  0  0  0  0  0  0  0  0  0
  -19.5986   21.8702  -43.9342 C   0  0  0  0  0  0  0  0  0  0  0  0
  -20.6929   22.4888  -43.3674 C   0  0  0  0  0  0  0  0  0  0  0  0
  -21.6724   23.1455  -44.0947 O   0  0  0  0  0  0  0  0  0  0  0  0
  -20.8119   22.4466  -41.9949 C   0  0  0  0  0  0  0  0  0  0  0  0
  -21.8930   23.0548  -41.4004 C   0  0  0  0  0  0  0  0  0  0  0  0
  -22.7688   23.6453  -42.0904 O   0  0  0  0  0  0  0  0  0  0  0  0
  -21.9948   23.0028  -40.0361 C   0  0  0  0  0  0  0  0  0  0  0  0
  -23.1040   23.6169  -39.3080 C   0  0  0  0  0  0  0  0  0  0  0  0
  -24.0289   22.8191  -38.6616 C   0  0  0  0  0  0  0  0  0  0  0  0
  -25.1011   23.3301  -37.9554 C   0  0  0  0  0  0  0  0  0  0  0  0
  -25.2491   24.7011  -37.8969 C   0  0  0  0  0  0  0  0  0  0  0  0
  -26.3264   25.1956  -37.1867 O   0  0  0  0  0  0  0  0  0  0  0  0
  -24.3343   25.5240  -38.5372 C   0  0  0  0  0  0  0  0  0  0  0  0
  -23.2727   24.9835  -39.2354 C   0  0  0  0  0  0  0  0  0  0  0  0
  -21.0126   22.3454  -39.3198 C   0  0  0  0  0  0  0  0  0  0  0  0
  -19.9881   21.7686  -39.8777 O   0  0  0  0  0  0  0  0  0  0  0  0
  -19.8773   21.8110  -41.1933 C   0  0  0  0  0  0  0  0  0  0  0  0
  -18.7891   21.1969  -41.7684 C   0  0  0  0  0  0  0  0  0  0  0  0
  1  2  1  0
  2  3  1  0
  3  4  2  0
  4  5  1  0
  5  6  1  0
  5  7  2  0
  7  8  1  0
  8  9  2  0
  8 10  1  0
 10 11  1  0
 11 12  2  0
 12 13  1  0
 13 14  2  0
 14 15  1  0
 14 16  1  0
 16 17  2  0
 10 18  2  0
 18 19  1  0
 19 20  1  0
 20 21  2  0
 21  3  1  0
 20  7  1  0
 17 11  1  0
M  END
$$$$
