
     RDKit          3D

 27 29  0  0  0  0  0  0  0  0999 V2000
  -17.5738   33.4882  -21.0621 C   0  0  0  0  0  0  0  0  0  0  0  0
  -19.0037   33.8272  -20.9773 C   0  0  0  0  0  0  0  0  0  0  0  0
  -19.8386   33.4529  -19.9479 C   0  0  0  0  0  0  0  0  0  0  0  0
  -19.1518   32.5040  -18.6420 Cl  0  0  0  0  0  0  0  0  0  0  0  0
  -21.1712   33.8029  -19.9275 C   0  0  0  0  0  0  0  0  0  0  0  0
  -21.7119   34.5451  -20.9470 C   0  0  0  0  0  0  0  0  0  0  0  0
  -20.8892   34.9364  -21.9997 C   0  0  0  0  0  0  0  0  0  0  0  0
  -19.5661   34.5801  -22.0054 C   0  0  0  0  0  0  0  0  0  0  0  0
  -18.5475   35.0854  -23.3141 S   0  0  0  0  0  6  0  0  0  0  0  0
  -17.7814   33.9268  -23.8425 O   0  0  0  0  0  0  0  0  0  0  0  0
  -19.3736   35.6226  -24.4588 O   0  0  0  0  0  0  0  0  0  0  0  0
  -17.4787   36.3248  -22.7765 N   0  0  0  0  0  0  0  0  0  0  0  0
  -17.9269   37.7079  -22.6400 C   0  0  0  0  0  0  0  0  0  0  0  0
  -17.5656   38.8040  -22.7334 N   0  0  0  0  0  0  0  0  0  0  0  0
  -18.2051   39.9351  -22.5636 C   0  0  0  0  0  0  0  0  0  0  0  0
  -17.6756   41.3445  -22.6961 C   0  0  0  0  0  0  0  0  0  0  0  0
  -17.5135   41.9495  -21.3446 C   0  0  0  0  0  0  0  0  0  0  0  0
  -17.8653   41.2980  -20.3234 O   0  0  0  0  0  0  0  0  0  0  0  0
  -16.9713   43.2474  -21.1621 N   0  0  0  0  0  0  0  0  0  0  0  0
  -16.5761   43.9870  -22.3227 C   0  0  0  0  0  0  0  0  0  0  0  0
  -16.8287   45.4659  -22.2416 C   0  0  0  0  0  0  0  0  0  0  0  0
  -17.0045   45.9665  -20.9226 N   0  0  0  0  0  0  0  0  0  0  0  0
  -18.3782   46.2961  -20.6053 C   0  0  0  0  0  0  0  0  0  0  0  0
  -16.3702   45.1851  -19.8967 C   0  0  0  0  0  0  0  0  0  0  0  0
  -16.8371   43.7692  -19.8390 C   0  0  0  0  0  0  0  0  0  0  0  0
  -19.5504   39.7642  -22.2101 C   0  0  0  0  0  0  0  0  0  0  0  0
  -19.7420   37.9869  -22.1623 S   0  0  0  0  0  0  0  0  0  0  0  0
  1  2  1  0
  2  3  2  0
  3  4  1  0
  3  5  1  0
  5  6  2  0
  6  7  1  0
  7  8  2  0
  8  9  1  0
  9 10  2  0
  9 11  2  0
  9 12  1  0
 12 13  1  0
 13 14  2  0
 14 15  1  0
 15 16  1  0
 16 17  1  0
 17 18  2  0
 17 19  1  0
 19 20  1  0
 20 21  1  0
 21 22  1  0
 22 23  1  0
 22 24  1  0
 24 25  1  0
 15 26  2  0
 26 27  1  0
  8  2  1  0
 27 13  1  0
 25 19  1  0
M  END
$$$$
