
     RDKit          3D

 29 32  0  0  0  0  0  0  0  0999 V2000
  -20.2775   32.7939  -20.6412 C   0  0  0  0  0  0  0  0  0  0  0  0
  -20.3461   34.0359  -21.3918 N   0  0  0  0  0  0  0  0  0  0  0  0
  -19.2682   34.9169  -21.5597 C   0  0  0  0  0  0  0  0  0  0  0  0
  -18.1467   34.6148  -21.1117 O   0  0  0  0  0  0  0  0  0  0  0  0
  -19.4364   36.1945  -22.2566 C   0  0  1  0  0  0  0  0  0  0  0  0
  -19.0724   37.2905  -21.4822 O   0  0  0  0  0  0  0  0  0  0  0  0
  -19.3060   38.3418  -22.3999 C   0  0  1  0  0  0  0  0  0  0  0  0
  -18.7549   39.5746  -21.9387 N   0  0  0  0  0  0  0  0  0  0  0  0
  -18.2840   39.8394  -20.7151 C   0  0  0  0  0  0  0  0  0  0  0  0
  -17.8471   41.1162  -20.6645 N   0  0  0  0  0  0  0  0  0  0  0  0
  -18.0496   41.6579  -21.8799 C   0  0  0  0  0  0  0  0  0  0  0  0
  -17.8131   42.9056  -22.4372 C   0  0  0  0  0  0  0  0  0  0  0  0
  -17.2359   43.8990  -21.6503 N   0  0  0  0  0  0  0  0  0  0  0  0
  -17.0241   43.7640  -20.2431 C   0  0  0  0  0  0  0  0  0  0  0  0
  -15.6742   44.1430  -19.8095 C   0  0  0  0  0  0  0  0  0  0  0  0
  -15.3459   45.4491  -19.5610 C   0  0  0  0  0  0  0  0  0  0  0  0
  -14.0741   45.8038  -19.1310 C   0  0  0  0  0  0  0  0  0  0  0  0
  -13.1357   44.8198  -18.9555 C   0  0  0  0  0  0  0  0  0  0  0  0
  -13.4309   43.4946  -19.1968 C   0  0  0  0  0  0  0  0  0  0  0  0
  -12.0041   41.9876  -18.9319 I   0  0  0  0  0  0  0  0  0  0  0  0
  -14.7048   43.1557  -19.6253 C   0  0  0  0  0  0  0  0  0  0  0  0
  -18.1554   43.0788  -23.7109 N   0  0  0  0  0  0  0  0  0  0  0  0
  -18.7093   42.1388  -24.4893 C   0  0  0  0  0  0  0  0  0  0  0  0
  -18.9437   40.9324  -23.9686 N   0  0  0  0  0  0  0  0  0  0  0  0
  -18.6138   40.6927  -22.6643 C   0  0  0  0  0  0  0  0  0  0  0  0
  -18.6354   37.8656  -23.6910 C   0  0  2  0  0  0  0  0  0  0  0  0
  -19.4745   38.1959  -24.7512 O   0  0  0  0  0  0  0  0  0  0  0  0
  -18.5847   36.3574  -23.4730 C   0  0  2  0  0  0  0  0  0  0  0  0
  -19.0542   35.6853  -24.5872 O   0  0  0  0  0  0  0  0  0  0  0  0
  1  2  1  0
  2  3  1  0
  3  4  2  0
  5  3  1  1
  5  6  1  0
  6  7  1  0
  7  8  1  1
  8  9  1  0
  9 10  2  0
 10 11  1  0
 11 12  2  0
 12 13  1  0
 13 14  1  0
 14 15  1  0
 15 16  2  0
 16 17  1  0
 17 18  2  0
 18 19  1  0
 19 20  1  0
 19 21  2  0
 12 22  1  0
 22 23  2  0
 23 24  1  0
 24 25  2  0
  7 26  1  0
 26 27  1  6
 26 28  1  0
 28 29  1  6
 28  5  1  0
 25  8  1  0
 25 11  1  0
 21 15  1  0
M  END
$$$$
