
     RDKit          3D

 37 41  0  0  0  0  0  0  0  0999 V2000
  -24.3861   -1.1674  -33.0874 C   0  0  0  0  0  0  0  0  0  0  0  0
  -23.0795   -1.5317  -33.4685 O   0  0  0  0  0  0  0  0  0  0  0  0
  -22.0110   -0.6837  -33.2153 C   0  0  0  0  0  0  0  0  0  0  0  0
  -21.9294    0.0498  -32.0538 C   0  0  0  0  0  0  0  0  0  0  0  0
  -20.8720    0.8985  -31.7877 C   0  0  0  0  0  0  0  0  0  0  0  0
  -20.8064    1.5949  -30.6323 N   0  0  0  0  0  0  0  0  0  0  0  0
  -19.7571    2.3994  -30.3951 C   0  0  0  0  0  0  0  0  0  0  0  0
  -18.7379    2.5309  -31.3142 C   0  0  0  0  0  0  0  0  0  0  0  0
  -18.8029    1.8117  -32.5127 C   0  0  0  0  0  0  0  0  0  0  0  0
  -17.7722    1.9635  -33.4106 O   0  0  0  0  0  0  0  0  0  0  0  0
  -16.5530    1.3266  -33.1341 C   0  0  0  0  0  0  0  0  0  0  0  0
  -15.6272    1.8422  -32.2435 C   0  0  0  0  0  0  0  0  0  0  0  0
  -14.4244    1.1671  -32.0010 C   0  0  0  0  0  0  0  0  0  0  0  0
  -14.1321   -0.0169  -32.6350 C   0  0  0  0  0  0  0  0  0  0  0  0
  -12.8933   -0.6565  -32.3409 N   0  0  0  0  0  0  0  0  0  0  0  0
  -11.8280   -0.6552  -33.2362 C   0  0  0  0  0  0  0  0  0  0  0  0
  -12.1700   -0.3869  -34.4618 O   0  0  0  0  0  0  0  0  0  0  0  0
  -10.4004   -0.8957  -33.0140 C   0  0  0  0  0  0  0  0  0  0  0  0
   -9.4671    0.2385  -33.0748 C   0  0  0  0  0  0  0  0  0  0  0  0
   -9.9272    1.3457  -32.6264 O   0  0  0  0  0  0  0  0  0  0  0  0
   -8.1749    0.2279  -33.5661 N   0  0  0  0  0  0  0  0  0  0  0  0
   -7.3734    1.3537  -33.9538 C   0  0  0  0  0  0  0  0  0  0  0  0
   -7.4160    2.5177  -33.1808 C   0  0  0  0  0  0  0  0  0  0  0  0
   -6.6904    3.6415  -33.4721 C   0  0  0  0  0  0  0  0  0  0  0  0
   -5.8751    3.6497  -34.5697 C   0  0  0  0  0  0  0  0  0  0  0  0
   -5.1371    4.7567  -34.8895 F   0  0  0  0  0  0  0  0  0  0  0  0
   -5.8059    2.5226  -35.3553 C   0  0  0  0  0  0  0  0  0  0  0  0
   -6.5627    1.3762  -35.0363 C   0  0  0  0  0  0  0  0  0  0  0  0
   -9.8674   -2.2875  -33.1898 C   0  0  0  0  0  0  0  0  0  0  0  0
  -10.0834   -1.8387  -31.7946 C   0  0  0  0  0  0  0  0  0  0  0  0
  -15.0638   -0.5109  -33.5147 C   0  0  0  0  0  0  0  0  0  0  0  0
  -16.2600    0.1418  -33.7688 C   0  0  0  0  0  0  0  0  0  0  0  0
  -19.8667    0.9898  -32.7598 C   0  0  0  0  0  0  0  0  0  0  0  0
  -19.9349    0.2620  -33.9248 C   0  0  0  0  0  0  0  0  0  0  0  0
  -21.0226   -0.5902  -34.1622 C   0  0  0  0  0  0  0  0  0  0  0  0
  -21.1091   -1.3213  -35.3133 O   0  0  0  0  0  0  0  0  0  0  0  0
  -20.1481   -1.5037  -36.2975 C   0  0  0  0  0  0  0  0  0  0  0  0
  1  2  1  0
  2  3  1  0
  3  4  2  0
  4  5  1  0
  5  6  2  0
  6  7  1  0
  7  8  2  0
  8  9  1  0
  9 10  1  0
 10 11  1  0
 11 12  2  0
 12 13  1  0
 13 14  2  0
 14 15  1  0
 15 16  1  0
 16 17  2  0
 16 18  1  0
 18 19  1  0
 19 20  2  0
 19 21  1  0
 21 22  1  0
 22 23  2  0
 23 24  1  0
 24 25  2  0
 25 26  1  0
 25 27  1  0
 27 28  2  0
 18 29  1  0
 29 30  1  0
 14 31  1  0
 31 32  2  0
  9 33  2  0
 33 34  1  0
 34 35  2  0
 35 36  1  0
 36 37  1  0
 35  3  1  0
 33  5  1  0
 32 11  1  0
 30 18  1  0
 28 22  1  0
M  END
$$$$
