
     RDKit          3D

 18 13  0  0  0  0  0  0  0  0999 V2000
  -18.7862   31.3715  -21.2065 N   0  0  0  0  0  0  0  0  0  0  0  0
  -18.8358   32.8416  -21.3314 C   0  0  0  0  0  0  0  0  0  0  0  0
  -19.6698   33.2619  -22.4742 C   0  0  0  0  0  0  0  0  0  0  0  0
  -19.7962   34.7085  -22.6557 C   0  0  0  0  0  0  0  0  0  0  0  0
  -18.6352   35.5643  -22.9179 C   0  0  0  0  0  0  0  0  0  0  0  0
  -17.9223   35.1634  -24.0734 O   0  0  0  0  0  0  0  0  0  0  0  0
  -19.4089   37.2262  -23.3827 P   0  0  0  0  0  5  0  0  0  0  0  0
  -20.6503   37.4355  -22.5564 O   0  0  0  0  0  0  0  0  0  0  0  0
  -19.8444   37.1253  -24.9970 O   0  0  0  0  0  1  0  0  0  0  0  0
  -18.3249   38.4574  -23.0562 O   0  0  0  0  0  1  0  0  0  0  0  0
  -17.4712   35.8665  -21.5993 P   0  0  0  0  0  5  0  0  0  0  0  0
  -17.9666   35.5482  -20.2262 O   0  0  0  0  0  0  0  0  0  0  0  0
  -17.0109   37.5391  -21.5937 O   0  0  0  0  0  1  0  0  0  0  0  0
  -15.9899   35.0427  -21.8371 O   0  0  0  0  0  1  0  0  0  0  0  0
  -19.0942   34.6112  -22.7186 O   0  0  0  0  0  0  0  0  0  0  0  0
  -19.0921   34.6116  -22.7150 O   0  0  0  0  0  0  0  0  0  0  0  0
  -19.0820   34.6157  -22.6989 O   0  0  0  0  0  0  0  0  0  0  0  0
  -18.9094   34.6076  -22.3684 Na  0  0  0  0  0 15  0  0  0  0  0  0
  1  2  1  0
  2  3  1  0
  3  4  1  0
  4  5  1  0
  5  6  1  0
  5  7  1  0
  7  8  2  0
  7  9  1  0
  7 10  1  0
  5 11  1  0
 11 12  2  0
 11 13  1  0
 11 14  1  0
M  CHG  5   9  -1  10  -1  13  -1  14  -1  18   1
M  END
$$$$
