
     RDKit          3D

 28 29  0  0  0  0  0  0  0  0999 V2000
  -17.6197   33.3648  -26.8292 C   0  0  0  0  0  0  0  0  0  0  0  0
  -18.0730   34.6323  -27.4781 C   0  0  0  0  0  0  0  0  0  0  0  0
  -18.8774   35.4216  -26.6260 O   0  0  0  0  0  0  0  0  0  0  0  0
  -18.3164   36.2590  -25.6880 C   0  0  0  0  0  0  0  0  0  0  0  0
  -17.0405   36.4348  -25.8243 O   0  0  0  0  0  0  0  0  0  0  0  0
  -18.9756   36.9462  -24.6053 C   0  0  0  0  0  0  0  0  0  0  0  0
  -20.1690   37.4503  -24.7458 C   0  0  0  0  0  0  0  0  0  0  0  0
  -21.0407   37.3895  -25.9550 C   0  0  0  0  0  0  0  0  0  0  0  0
  -21.1079   38.6742  -26.4661 O   0  0  0  0  0  0  0  0  0  0  0  0
  -21.6099   38.8154  -27.7177 C   0  0  0  0  0  0  0  0  0  0  0  0
  -21.6477   40.2671  -28.1047 C   0  0  0  0  0  0  0  0  0  0  0  0
  -21.9091   40.4075  -29.5198 N   0  0  0  0  0  0  0  0  0  0  0  0
  -20.5663   38.4371  -23.7369 N   0  0  0  0  0  0  0  0  0  0  0  0
  -19.7232   38.8370  -22.6797 C   0  0  0  0  0  0  0  0  0  0  0  0
  -20.1672   39.8694  -21.7055 C   0  0  0  0  0  0  0  0  0  0  0  0
  -18.5296   38.2859  -22.5593 C   0  0  0  0  0  0  0  0  0  0  0  0
  -17.5844   38.6848  -21.5340 C   0  0  0  0  0  0  0  0  0  0  0  0
  -16.8875   37.7572  -20.9923 O   0  0  0  0  0  0  0  0  0  0  0  0
  -17.3923   39.9711  -21.1144 O   0  0  0  0  0  0  0  0  0  0  0  0
  -17.4212   40.4009  -19.7742 C   0  0  0  0  0  0  0  0  0  0  0  0
  -18.2999   36.9559  -23.2793 C   0  0  0  0  0  0  0  0  0  0  0  0
  -18.8898   35.9067  -22.3757 C   0  0  0  0  0  0  0  0  0  0  0  0
  -20.2674   35.8947  -22.2113 C   0  0  0  0  0  0  0  0  0  0  0  0
  -20.8977   34.9361  -21.3985 C   0  0  0  0  0  0  0  0  0  0  0  0
  -20.1948   33.9806  -20.7389 C   0  0  0  0  0  0  0  0  0  0  0  0
  -18.8354   33.9719  -20.8858 C   0  0  0  0  0  0  0  0  0  0  0  0
  -18.2068   34.9298  -21.6976 C   0  0  0  0  0  0  0  0  0  0  0  0
  -16.4874   34.8159  -21.8048 Cl  0  0  0  0  0  0  0  0  0  0  0  0
  1  2  1  0
  2  3  1  0
  3  4  1  0
  4  5  2  0
  4  6  1  0
  6  7  2  0
  7  8  1  0
  8  9  1  0
  9 10  1  0
 10 11  1  0
 11 12  1  0
  7 13  1  0
 13 14  1  0
 14 15  1  0
 14 16  2  0
 16 17  1  0
 17 18  2  0
 17 19  1  0
 19 20  1  0
 16 21  1  0
 21 22  1  0
 22 23  2  0
 23 24  1  0
 24 25  2  0
 25 26  1  0
 26 27  2  0
 27 28  1  0
 21  6  1  0
 27 22  1  0
M  END
$$$$
