
     RDKit          3D

 32 34  0  0  0  0  0  0  0  0999 V2000
  -27.2038   19.7073  -29.8827 C   0  0  0  0  0  0  0  0  0  0  0  0
  -27.3215   20.9480  -29.1478 N   0  0  0  0  0  0  0  0  0  0  0  0
  -28.2147   21.0636  -28.0462 C   0  0  0  0  0  0  0  0  0  0  0  0
  -28.3283   22.2106  -27.3627 N   0  0  0  0  0  0  0  0  0  0  0  0
  -29.1609   22.3420  -26.3264 C   0  0  0  0  0  0  0  0  0  0  0  0
  -29.2711   23.6420  -25.5720 C   0  0  0  0  0  0  0  0  0  0  0  0
  -29.9246   21.3296  -25.9196 N   0  0  0  0  0  0  0  0  0  0  0  0
  -29.8266   20.1505  -26.6000 C   0  0  0  0  0  0  0  0  0  0  0  0
  -30.6109   19.0373  -26.2190 N   0  0  0  0  0  0  0  0  0  0  0  0
  -30.4081   17.7645  -26.8486 C   0  0  1  0  0  0  0  0  0  0  0  0
  -29.1443   17.0723  -26.4659 C   0  0  0  0  0  0  0  0  0  0  0  0
  -29.3083   16.0274  -25.3841 C   0  0  0  0  0  0  0  0  0  0  0  0
  -30.2665   14.9285  -25.7719 C   0  0  0  0  0  0  0  0  0  0  0  0
  -31.0321   15.4300  -26.9758 C   0  0  1  0  0  0  0  0  0  0  0  0
  -32.1425   14.4974  -27.3472 C   0  0  0  0  0  0  0  0  0  0  0  0
  -32.9383   14.8711  -28.2255 O   0  0  0  0  0  0  0  0  0  0  0  0
  -32.3099   13.2382  -26.7465 N   0  0  0  0  0  0  0  0  0  0  0  0
  -32.3890   12.8743  -25.3738 C   0  0  0  0  0  0  0  0  0  0  0  0
  -33.7214   13.0053  -24.7460 C   0  0  0  0  0  0  0  0  0  0  0  0
  -34.6348   13.9259  -25.1894 C   0  0  0  0  0  0  0  0  0  0  0  0
  -35.8063   14.1300  -24.5133 C   0  0  0  0  0  0  0  0  0  0  0  0
  -36.1234   13.4331  -23.3716 C   0  0  0  0  0  0  0  0  0  0  0  0
  -37.3673   13.6813  -22.6828 C   0  0  0  0  0  0  0  0  0  0  0  0
  -38.3687   13.8707  -22.1490 N   0  0  0  0  0  0  0  0  0  0  0  0
  -35.2300   12.5131  -22.9181 C   0  0  0  0  0  0  0  0  0  0  0  0
  -34.0228   12.2836  -23.5951 C   0  0  0  0  0  0  0  0  0  0  0  0
  -33.2075   11.1666  -23.1075 C   0  0  0  0  0  0  0  0  0  0  0  0
  -32.1400   10.9762  -23.9859 F   0  0  0  0  0  0  0  0  0  0  0  0
  -32.5619   11.5246  -21.9045 F   0  0  0  0  0  0  0  0  0  0  0  0
  -33.8090    9.9568  -22.9780 F   0  0  0  0  0  0  0  0  0  0  0  0
  -31.5554   16.8053  -26.6196 C   0  0  0  0  0  0  0  0  0  0  0  0
  -28.9783   20.0423  -27.6435 N   0  0  0  0  0  0  0  0  0  0  0  0
  1  2  1  0
  2  3  1  0
  3  4  2  0
  4  5  1  0
  5  6  1  0
  5  7  2  0
  7  8  1  0
  8  9  1  0
 10  9  1  1
 10 11  1  0
 11 12  1  0
 12 13  1  0
 13 14  1  0
 14 15  1  1
 15 16  2  0
 15 17  1  0
 17 18  1  0
 18 19  1  0
 19 20  2  0
 20 21  1  0
 21 22  2  0
 22 23  1  0
 23 24  3  0
 22 25  1  0
 25 26  2  0
 26 27  1  0
 27 28  1  0
 27 29  1  0
 27 30  1  0
 14 31  1  0
  8 32  2  0
 32  3  1  0
 31 10  1  0
 26 19  1  0
M  END
$$$$
