
     RDKit          3D

 34 36  0  0  0  0  0  0  0  0999 V2000
  -16.0227   14.5095  -36.9209 C   0  0  0  0  0  0  0  0  0  0  0  0
  -15.1955   15.5702  -37.3503 O   0  0  0  0  0  0  0  0  0  0  0  0
  -15.5426   16.8832  -37.0676 C   0  0  0  0  0  0  0  0  0  0  0  0
  -16.4913   17.5503  -37.8081 C   0  0  0  0  0  0  0  0  0  0  0  0
  -16.8334   18.8780  -37.5115 C   0  0  0  0  0  0  0  0  0  0  0  0
  -17.8336   19.5854  -38.2773 C   0  0  0  0  0  0  0  0  0  0  0  0
  -17.4028   20.4796  -39.0646 O   0  0  0  0  0  0  0  0  0  0  0  0
  -19.2225   19.3586  -38.2156 N   0  0  0  0  0  0  0  0  0  0  0  0
  -19.7117   18.0068  -38.3174 C   0  0  0  0  0  0  0  0  0  0  0  0
  -20.0002   17.3232  -37.0123 C   0  0  0  0  0  0  0  0  0  0  0  0
  -20.3917   15.8889  -37.1874 C   0  0  0  0  0  0  0  0  0  0  0  0
  -20.5782   15.2644  -35.8290 C   0  0  0  0  0  0  0  0  0  0  0  0
  -21.7878   15.3671  -35.2084 C   0  0  0  0  0  0  0  0  0  0  0  0
  -21.9382   14.7837  -33.9566 C   0  0  0  0  0  0  0  0  0  0  0  0
  -20.9237   14.1072  -33.3139 C   0  0  0  0  0  0  0  0  0  0  0  0
  -19.7009   14.0262  -33.9857 C   0  0  0  0  0  0  0  0  0  0  0  0
  -19.5434   14.6022  -35.2280 C   0  0  0  0  0  0  0  0  0  0  0  0
  -20.1223   20.4412  -38.0305 C   0  0  0  0  0  0  0  0  0  0  0  0
  -20.6374   21.1027  -39.2473 C   0  0  0  0  0  0  0  0  0  0  0  0
  -21.5162   22.1848  -39.1419 C   0  0  0  0  0  0  0  0  0  0  0  0
  -22.0040   22.8262  -40.2590 C   0  0  0  0  0  0  0  0  0  0  0  0
  -21.6598   22.4455  -41.5399 C   0  0  0  0  0  0  0  0  0  0  0  0
  -22.1949   23.1508  -42.7389 C   0  0  0  0  0  0  0  0  0  0  0  0
  -21.5211   24.4380  -42.9228 C   0  0  0  0  0  0  0  0  0  0  0  0
  -20.7184   24.5863  -43.8870 O   0  0  0  0  0  0  0  0  0  0  0  0
  -21.7844   25.4643  -42.0280 O   0  0  0  0  0  0  0  0  0  0  0  0
  -20.7933   21.3793  -41.6573 C   0  0  0  0  0  0  0  0  0  0  0  0
  -20.2966   20.7266  -40.5265 C   0  0  0  0  0  0  0  0  0  0  0  0
  -16.1745   19.4636  -36.4530 C   0  0  0  0  0  0  0  0  0  0  0  0
  -15.2139   18.7986  -35.6984 C   0  0  0  0  0  0  0  0  0  0  0  0
  -14.5522   19.3800  -34.6396 O   0  0  0  0  0  0  0  0  0  0  0  0
  -15.2013   20.0294  -33.5762 C   0  0  0  0  0  0  0  0  0  0  0  0
  -14.8945   17.4931  -36.0097 C   0  0  0  0  0  0  0  0  0  0  0  0
  -13.8809   16.7142  -35.2573 C   0  0  0  0  0  0  0  0  0  0  0  0
  1  2  1  0
  2  3  1  0
  3  4  2  0
  4  5  1  0
  5  6  1  0
  6  7  2  0
  6  8  1  0
  8  9  1  0
  9 10  1  0
 10 11  1  0
 11 12  1  0
 12 13  2  0
 13 14  1  0
 14 15  2  0
 15 16  1  0
 16 17  2  0
  8 18  1  0
 18 19  1  0
 19 20  2  0
 20 21  1  0
 21 22  2  0
 22 23  1  0
 23 24  1  0
 24 25  2  0
 24 26  1  0
 22 27  1  0
 27 28  2  0
  5 29  2  0
 29 30  1  0
 30 31  1  0
 31 32  1  0
 30 33  2  0
 33 34  1  0
 33  3  1  0
 17 12  1  0
 28 19  1  0
M  END
$$$$
