
     RDKit          3D

 17 17  0  0  0  0  0  0  0  0999 V2000
  -22.0035   32.0595  -21.6188 C   0  0  0  0  0  0  0  0  0  0  0  0
  -20.6123   32.6368  -21.3981 C   0  0  0  0  0  0  0  0  0  0  0  0
  -19.9549   32.7322  -22.7564 C   0  0  0  0  0  0  0  0  0  0  0  0
  -18.6423   33.2799  -22.6178 N   0  0  0  0  0  0  0  0  0  0  0  0
  -18.4509   34.6683  -22.8859 C   0  0  0  0  0  0  0  0  0  0  0  0
  -19.3231   35.4302  -23.3208 O   0  0  0  0  0  0  0  0  0  0  0  0
  -17.1534   35.2142  -22.6315 N   0  0  0  0  0  0  0  0  0  0  0  0
  -16.7854   36.8495  -23.0269 S   0  0  0  0  0  6  0  0  0  0  0  0
  -17.2203   37.2136  -24.4052 O   0  0  0  0  0  0  0  0  0  0  0  0
  -15.3121   37.1251  -22.9135 O   0  0  0  0  0  0  0  0  0  0  0  0
  -17.6623   37.8708  -21.8856 C   0  0  0  0  0  0  0  0  0  0  0  0
  -18.9000   38.3743  -22.1794 C   0  0  0  0  0  0  0  0  0  0  0  0
  -19.5438   39.1618  -21.2649 C   0  0  0  0  0  0  0  0  0  0  0  0
  -19.0089   39.4887  -20.0327 C   0  0  0  0  0  0  0  0  0  0  0  0
  -19.9052   40.5018  -18.9289 Cl  0  0  0  0  0  0  0  0  0  0  0  0
  -17.7599   38.9834  -19.7309 C   0  0  0  0  0  0  0  0  0  0  0  0
  -17.1127   38.1896  -20.6542 C   0  0  0  0  0  0  0  0  0  0  0  0
  1  2  1  0
  2  3  1  0
  3  4  1  0
  4  5  1  0
  5  6  2  0
  5  7  1  0
  7  8  1  0
  8  9  2  0
  8 10  2  0
  8 11  1  0
 11 12  2  0
 12 13  1  0
 13 14  2  0
 14 15  1  0
 14 16  1  0
 16 17  2  0
 17 11  1  0
M  END
$$$$
