
     RDKit          3D

 34 38  0  0  0  0  0  0  0  0999 V2000
  -26.1916   15.7362  -23.1825 C   0  0  0  0  0  0  0  0  0  0  0  0
  -25.8498   16.7356  -24.1749 N   0  0  0  0  0  0  0  0  0  0  0  0
  -26.8123   17.1253  -25.1456 C   0  0  0  0  0  0  0  0  0  0  0  0
  -26.4667   18.0138  -26.1051 N   0  0  0  0  0  0  0  0  0  0  0  0
  -27.3256   18.4269  -27.0561 C   0  0  0  0  0  0  0  0  0  0  0  0
  -26.8656   19.4005  -28.0591 C   0  0  0  0  0  0  0  0  0  0  0  0
  -25.5629   19.7563  -28.1914 C   0  0  0  0  0  0  0  0  0  0  0  0
  -25.1816   20.6867  -29.1656 C   0  0  0  0  0  0  0  0  0  0  0  0
  -26.1166   21.2510  -29.9987 C   0  0  0  0  0  0  0  0  0  0  0  0
  -26.0748   22.1757  -31.0378 C   0  0  0  0  0  0  0  0  0  0  0  0
  -24.8951   22.7987  -31.4995 N   0  0  0  0  0  0  0  0  0  0  0  0
  -27.3384   22.3337  -31.4792 N   0  0  0  0  0  0  0  0  0  0  0  0
  -28.1662   21.5777  -30.7947 N   0  0  0  0  0  0  0  0  0  0  0  0
  -27.4314   20.8998  -29.8737 C   0  0  0  0  0  0  0  0  0  0  0  0
  -27.7812   19.9831  -28.9087 C   0  0  0  0  0  0  0  0  0  0  0  0
  -28.5890   17.9255  -27.0446 C   0  0  0  0  0  0  0  0  0  0  0  0
  -28.9932   16.9991  -26.0659 C   0  0  0  0  0  0  0  0  0  0  0  0
  -30.3122   16.5114  -26.1145 N   0  0  0  0  0  0  0  0  0  0  0  0
  -30.6002   15.0864  -25.9199 C   0  0  0  0  0  0  0  0  0  0  0  0
  -32.0078   14.9955  -25.3346 C   0  0  1  0  0  0  0  0  0  0  0  0
  -32.2427   13.6582  -24.7607 C   0  0  0  0  0  0  0  0  0  0  0  0
  -31.3568   13.1243  -24.0720 O   0  0  0  0  0  0  0  0  0  0  0  0
  -33.4345   12.9192  -24.9416 N   0  0  0  0  0  0  0  0  0  0  0  0
  -33.9479   12.0566  -23.9405 C   0  0  0  0  0  0  0  0  0  0  0  0
  -34.5395   10.8466  -24.6423 C   0  0  0  0  0  0  0  0  0  0  0  0
  -35.7760   10.3215  -23.9589 C   0  0  0  0  0  0  0  0  0  0  0  0
  -36.8824   11.3536  -23.9139 C   0  0  0  0  0  0  0  0  0  0  0  0
  -36.2910   12.7692  -23.8548 C   0  0  0  0  0  0  0  0  0  0  0  0
  -35.0129   12.6511  -23.0691 C   0  0  0  0  0  0  0  0  0  0  0  0
  -32.1577   16.1027  -24.3156 C   0  0  0  0  0  0  0  0  0  0  0  0
  -32.3089   17.4138  -25.0939 C   0  0  0  0  0  0  0  0  0  0  0  0
  -31.4440   17.3548  -26.3613 C   0  0  1  0  0  0  0  0  0  0  0  0
  -31.0500   18.7591  -26.7446 C   0  0  0  0  0  0  0  0  0  0  0  0
  -28.0663   16.6513  -25.1642 N   0  0  0  0  0  0  0  0  0  0  0  0
  1  2  1  0
  2  3  1  0
  3  4  2  0
  4  5  1  0
  5  6  1  0
  6  7  2  0
  7  8  1  0
  8  9  2  0
  9 10  1  0
 10 11  1  0
 10 12  2  0
 12 13  1  0
 13 14  1  0
 14 15  2  0
  5 16  2  0
 16 17  1  0
 17 18  1  0
 18 19  1  0
 19 20  1  0
 20 21  1  1
 21 22  2  0
 21 23  1  0
 23 24  1  0
 24 25  1  0
 25 26  1  0
 26 27  1  0
 27 28  1  0
 28 29  1  0
 20 30  1  0
 30 31  1  0
 31 32  1  0
 32 33  1  1
 17 34  2  0
 34  3  1  0
 15  6  1  0
 32 18  1  0
 14  9  1  0
 29 24  1  0
M  END
$$$$
