
     RDKit          3D

 34 38  0  0  0  0  0  0  0  0999 V2000
  -10.8924   42.5952  -15.8509 C   0  0  0  0  0  0  0  0  0  0  0  0
  -11.3189   43.3009  -17.0696 N   0  0  0  0  0  0  0  0  0  0  0  0
  -12.6193   43.1417  -17.5945 C   0  0  0  0  0  0  0  0  0  0  0  0
  -13.3716   42.3166  -16.9811 O   0  0  0  0  0  0  0  0  0  0  0  0
  -13.1177   43.8625  -18.7734 C   0  0  0  0  0  0  0  0  0  0  0  0
  -12.4581   45.0238  -19.1873 C   0  0  0  0  0  0  0  0  0  0  0  0
  -12.9113   45.6978  -20.2769 C   0  0  0  0  0  0  0  0  0  0  0  0
  -14.0322   45.2475  -20.9957 C   0  0  0  0  0  0  0  0  0  0  0  0
  -14.6978   44.1170  -20.6167 C   0  0  0  0  0  0  0  0  0  0  0  0
  -15.8627   43.5889  -21.3079 C   0  0  0  0  0  0  0  0  0  0  0  0
  -16.6924   44.4393  -21.9909 C   0  0  0  0  0  0  0  0  0  0  0  0
  -17.8121   43.9337  -22.6571 C   0  0  0  0  0  0  0  0  0  0  0  0
  -18.0319   42.5784  -22.5945 C   0  0  0  0  0  0  0  0  0  0  0  0
  -19.1187   42.0124  -23.2220 C   0  0  0  0  0  0  0  0  0  0  0  0
  -20.0194   42.8026  -23.9816 N   0  0  0  0  0  0  0  0  0  0  0  0
  -21.3083   42.2376  -24.3144 C   0  0  0  0  0  0  0  0  0  0  0  0
  -21.8329   42.6722  -25.6584 C   0  0  0  0  0  0  0  0  0  0  0  0
  -21.5652   43.9841  -25.9553 O   0  0  0  0  0  0  0  0  0  0  0  0
  -21.0909   44.7273  -24.8745 C   0  0  0  0  0  0  0  0  0  0  0  0
  -19.7382   44.1376  -24.4487 C   0  0  2  0  0  0  0  0  0  0  0  0
  -18.9118   44.1002  -25.7416 C   0  0  0  0  0  0  0  0  0  0  0  0
  -19.2893   40.6617  -23.1172 N   0  0  0  0  0  0  0  0  0  0  0  0
  -18.4758   39.8490  -22.4495 C   0  0  0  0  0  0  0  0  0  0  0  0
  -18.7728   38.4428  -22.4192 N   0  0  0  0  0  0  0  0  0  0  0  0
  -19.9710   37.8925  -23.0040 C   0  0  0  0  0  0  0  0  0  0  0  0
  -19.6678   36.5173  -23.5106 C   0  0  0  0  0  0  0  0  0  0  0  0
  -19.1793   35.6437  -22.5802 O   0  0  0  0  0  0  0  0  0  0  0  0
  -18.5581   36.2011  -21.4970 C   0  0  0  0  0  0  0  0  0  0  0  0
  -17.8622   37.5058  -21.7870 C   0  0  2  0  0  0  0  0  0  0  0  0
  -17.4699   38.1155  -20.4516 C   0  0  0  0  0  0  0  0  0  0  0  0
  -17.4211   40.3717  -21.8376 N   0  0  0  0  0  0  0  0  0  0  0  0
  -17.1947   41.7110  -21.9032 C   0  0  0  0  0  0  0  0  0  0  0  0
  -16.1310   42.2480  -21.2790 N   0  0  0  0  0  0  0  0  0  0  0  0
  -14.2015   43.4508  -19.4905 C   0  0  0  0  0  0  0  0  0  0  0  0
  1  2  1  0
  2  3  1  0
  3  4  2  0
  3  5  1  0
  5  6  2  0
  6  7  1  0
  7  8  2  0
  8  9  1  0
  9 10  1  0
 10 11  2  0
 11 12  1  0
 12 13  2  0
 13 14  1  0
 14 15  1  0
 15 16  1  0
 16 17  1  0
 17 18  1  0
 18 19  1  0
 19 20  1  0
 20 21  1  6
 14 22  2  0
 22 23  1  0
 23 24  1  0
 24 25  1  0
 25 26  1  0
 26 27  1  0
 27 28  1  0
 28 29  1  0
 29 30  1  1
 23 31  2  0
 31 32  1  0
 32 33  2  0
  9 34  2  0
 34  5  1  0
 33 10  1  0
 32 13  1  0
 20 15  1  0
 29 24  1  0
M  END
$$$$
