
     RDKit          3D

 42 45  0  0  0  0  0  0  0  0999 V2000
  -14.4895   -1.9009  -34.0406 C   0  0  0  0  0  0  0  0  0  0  0  0
  -15.1998   -1.8130  -32.7770 N   0  0  0  0  0  0  0  0  0  0  0  0
  -16.5676   -1.5079  -33.0693 C   0  0  0  0  0  0  0  0  0  0  0  0
  -17.1940   -0.4265  -32.3095 C   0  0  0  0  0  0  0  0  0  0  0  0
  -16.7530   -0.2583  -31.0909 O   0  0  0  0  0  0  0  0  0  0  0  0
  -18.2001    0.4666  -32.6812 N   0  0  0  0  0  0  0  0  0  0  0  0
  -18.7196    1.6056  -31.9892 C   0  0  0  0  0  0  0  0  0  0  0  0
  -20.1939    1.5582  -31.8070 C   0  0  0  0  0  0  0  0  0  0  0  0
  -21.0338    2.2968  -32.6113 C   0  0  0  0  0  0  0  0  0  0  0  0
  -22.4033    2.2845  -32.4747 C   0  0  0  0  0  0  0  0  0  0  0  0
  -22.9827    1.5058  -31.4964 C   0  0  0  0  0  0  0  0  0  0  0  0
  -24.4612    1.4455  -31.2933 C   0  0  0  0  0  0  0  0  0  0  0  0
  -25.2032    2.1784  -32.3752 C   0  0  0  0  0  0  0  0  0  0  0  0
  -26.6849    1.9777  -32.1395 C   0  0  0  0  0  0  0  0  0  0  0  0
  -27.0950    0.5381  -32.2066 C   0  0  0  0  0  0  0  0  0  0  0  0
  -25.8656   -0.3449  -32.3487 C   0  0  0  0  0  0  0  0  0  0  0  0
  -24.9370    0.0124  -31.2056 C   0  0  0  0  0  0  0  0  0  0  0  0
  -22.1630    0.7587  -30.6802 C   0  0  0  0  0  0  0  0  0  0  0  0
  -20.7657    0.7825  -30.8328 C   0  0  0  0  0  0  0  0  0  0  0  0
  -18.8748    0.1949  -33.9511 C   0  0  0  0  0  0  0  0  0  0  0  0
  -18.4803    0.8897  -35.0700 C   0  0  0  0  0  0  0  0  0  0  0  0
  -19.1003    0.6486  -36.2783 C   0  0  0  0  0  0  0  0  0  0  0  0
  -20.1120   -0.2719  -36.4109 C   0  0  0  0  0  0  0  0  0  0  0  0
  -20.7532   -0.5085  -37.7037 C   0  0  0  0  0  0  0  0  0  0  0  0
  -20.9479    0.4667  -38.4685 O   0  0  0  0  0  0  0  0  0  0  0  0
  -21.1418   -1.7611  -38.0933 O   0  0  0  0  0  0  0  0  0  0  0  0
  -20.4875   -0.9538  -35.2737 C   0  0  0  0  0  0  0  0  0  0  0  0
  -19.8772   -0.7230  -34.0622 C   0  0  0  0  0  0  0  0  0  0  0  0
  -14.5919   -0.5128  -31.8071 S   0  0  0  0  0  6  0  0  0  0  0  0
  -14.3068   -1.0802  -30.4459 O   0  0  0  0  0  0  0  0  0  0  0  0
  -15.7074    0.4986  -31.6158 O   0  0  0  0  0  0  0  0  0  0  0  0
  -13.1771    0.2180  -32.4890 C   0  0  0  0  0  0  0  0  0  0  0  0
  -13.2132    1.4832  -33.0360 C   0  0  0  0  0  0  0  0  0  0  0  0
  -14.3726    2.1761  -33.0444 F   0  0  0  0  0  0  0  0  0  0  0  0
  -12.1064    2.0893  -33.5852 C   0  0  0  0  0  0  0  0  0  0  0  0
  -12.1814    3.3341  -34.1132 F   0  0  0  0  0  0  0  0  0  0  0  0
  -10.8925    1.4394  -33.6097 C   0  0  0  0  0  0  0  0  0  0  0  0
   -9.7794    2.0345  -34.1559 F   0  0  0  0  0  0  0  0  0  0  0  0
  -10.8295    0.1746  -33.0699 C   0  0  0  0  0  0  0  0  0  0  0  0
   -9.6143   -0.4505  -33.1058 F   0  0  0  0  0  0  0  0  0  0  0  0
  -11.9444   -0.4281  -32.5200 C   0  0  0  0  0  0  0  0  0  0  0  0
  -11.8658   -1.6594  -31.9988 F   0  0  0  0  0  0  0  0  0  0  0  0
  1  2  1  0
  2  3  1  0
  3  4  1  0
  4  5  2  0
  4  6  1  0
  6  7  1  0
  7  8  1  0
  8  9  2  0
  9 10  1  0
 10 11  2  0
 11 12  1  0
 12 13  1  0
 13 14  1  0
 14 15  1  0
 15 16  1  0
 16 17  1  0
 11 18  1  0
 18 19  2  0
  6 20  1  0
 20 21  2  0
 21 22  1  0
 22 23  2  0
 23 24  1  0
 24 25  2  0
 24 26  1  0
 23 27  1  0
 27 28  2  0
  2 29  1  0
 29 30  2  0
 29 31  2  0
 29 32  1  0
 32 33  2  0
 33 34  1  0
 33 35  1  0
 35 36  1  0
 35 37  2  0
 37 38  1  0
 37 39  1  0
 39 40  1  0
 39 41  2  0
 41 42  1  0
 19  8  1  0
 28 20  1  0
 41 32  1  0
 17 12  1  0
M  END
$$$$
