
     RDKit          3D

 30 32  0  0  0  0  0  0  0  0999 V2000
  -14.2281    0.4352  -31.5461 C   0  0  0  0  0  0  0  0  0  0  0  0
  -13.5744   -0.8902  -31.8254 C   0  0  2  0  0  0  0  0  0  0  0  0
  -12.8464   -0.8636  -33.1757 C   0  0  0  0  0  0  0  0  0  0  0  0
  -12.1075   -2.0560  -33.3229 N   0  0  0  0  0  0  0  0  0  0  0  0
  -10.8750   -2.0035  -32.5829 C   0  0  0  0  0  0  0  0  0  0  0  0
   -9.9949   -0.8718  -32.9363 C   0  0  0  0  0  0  0  0  0  0  0  0
   -9.6590    0.1638  -32.0893 C   0  0  0  0  0  0  0  0  0  0  0  0
   -8.8351    1.1971  -32.4794 C   0  0  0  0  0  0  0  0  0  0  0  0
   -8.3074    1.2394  -33.7433 C   0  0  0  0  0  0  0  0  0  0  0  0
   -7.4951    2.2562  -34.1310 F   0  0  0  0  0  0  0  0  0  0  0  0
   -8.6197    0.2284  -34.6088 C   0  0  0  0  0  0  0  0  0  0  0  0
   -9.4466   -0.8038  -34.2096 C   0  0  0  0  0  0  0  0  0  0  0  0
  -12.7658   -3.2891  -33.1044 C   0  0  0  0  0  0  0  0  0  0  0  0
  -13.9035   -3.3032  -32.1503 C   0  0  0  0  0  0  0  0  0  0  0  0
  -14.4716   -2.0045  -31.8989 N   0  0  0  0  0  0  0  0  0  0  0  0
  -15.8565   -1.8536  -31.7342 C   0  0  0  0  0  0  0  0  0  0  0  0
  -16.6018   -2.6244  -31.0641 O   0  0  0  0  0  0  0  0  0  0  0  0
  -16.5400   -0.6883  -32.3974 C   0  0  0  0  0  0  0  0  0  0  0  0
  -17.9226   -0.7292  -32.2348 O   0  0  0  0  0  0  0  0  0  0  0  0
  -18.6483    0.4386  -32.1312 C   0  0  0  0  0  0  0  0  0  0  0  0
  -18.1037    1.6074  -32.6090 C   0  0  0  0  0  0  0  0  0  0  0  0
  -18.7851    2.8195  -32.5344 C   0  0  0  0  0  0  0  0  0  0  0  0
  -20.0282    2.8098  -31.9638 C   0  0  0  0  0  0  0  0  0  0  0  0
  -20.9201    4.3132  -31.8500 Cl  0  0  0  0  0  0  0  0  0  0  0  0
  -20.5789    1.6287  -31.4809 C   0  0  0  0  0  0  0  0  0  0  0  0
  -19.8995    0.4407  -31.5593 C   0  0  0  0  0  0  0  0  0  0  0  0
  -20.5148   -0.7325  -31.0483 N   0  0  0  0  0  0  0  0  0  0  0  0
  -21.8298   -1.0762  -31.4670 C   0  0  0  0  0  0  0  0  0  0  0  0
  -22.3651   -2.3733  -31.1982 N   0  0  0  0  0  0  0  0  0  0  0  0
  -22.4993   -0.2034  -32.0781 O   0  0  0  0  0  0  0  0  0  0  0  0
  2  1  1  6
  2  3  1  0
  3  4  1  0
  4  5  1  0
  5  6  1  0
  6  7  2  0
  7  8  1  0
  8  9  2  0
  9 10  1  0
  9 11  1  0
 11 12  2  0
  4 13  1  0
 13 14  1  0
 14 15  1  0
 15 16  1  0
 16 17  2  0
 16 18  1  0
 18 19  1  0
 19 20  1  0
 20 21  2  0
 21 22  1  0
 22 23  2  0
 23 24  1  0
 23 25  1  0
 25 26  2  0
 26 27  1  0
 27 28  1  0
 28 29  1  0
 28 30  2  0
 15  2  1  0
 26 20  1  0
 12  6  1  0
M  END
$$$$
