
     RDKit          3D

 17 18  0  0  0  0  0  0  0  0999 V2000
  -15.3005   19.0364  -31.4576 C   0  0  0  0  0  0  0  0  0  0  0  0
  -15.6222   17.7846  -30.6789 C   0  0  0  0  0  0  0  0  0  0  0  0
  -16.8209   17.0794  -31.2045 C   0  0  0  0  0  0  0  0  0  0  0  0
  -17.8142   17.7564  -31.7672 N   0  0  0  0  0  0  0  0  0  0  0  0
  -18.9303   17.2041  -32.2662 C   0  0  0  0  0  0  0  0  0  0  0  0
  -19.9723   17.9488  -32.8607 N   0  0  0  0  0  0  0  0  0  0  0  0
  -19.0080   15.8445  -32.1668 N   0  0  0  0  0  0  0  0  0  0  0  0
  -18.0456   15.1193  -31.6146 C   0  0  0  0  0  0  0  0  0  0  0  0
  -18.1348   13.7044  -31.5164 N   0  0  0  0  0  0  0  0  0  0  0  0
  -16.8909   15.7199  -31.1014 C   0  0  0  0  0  0  0  0  0  0  0  0
  -15.8582   14.8855  -30.5059 C   0  0  0  0  0  0  0  0  0  0  0  0
  -14.9392   14.2118  -31.2843 C   0  0  0  0  0  0  0  0  0  0  0  0
  -13.9528   13.4157  -30.7168 C   0  0  0  0  0  0  0  0  0  0  0  0
  -13.8477   13.2632  -29.3554 C   0  0  0  0  0  0  0  0  0  0  0  0
  -12.6139   12.2657  -28.5999 Cl  0  0  0  0  0  0  0  0  0  0  0  0
  -14.7695   13.9385  -28.5655 C   0  0  0  0  0  0  0  0  0  0  0  0
  -15.7343   14.7179  -29.1374 C   0  0  0  0  0  0  0  0  0  0  0  0
  1  2  1  0
  2  3  1  0
  3  4  2  0
  4  5  1  0
  5  6  1  0
  5  7  2  0
  7  8  1  0
  8  9  1  0
  8 10  2  0
 10 11  1  0
 11 12  2  0
 12 13  1  0
 13 14  2  0
 14 15  1  0
 14 16  1  0
 16 17  2  0
 10  3  1  0
 17 11  1  0
M  END
$$$$
