
     RDKit          3D

 38 42  0  0  0  0  0  0  0  0999 V2000
  -14.6042   21.7027  -29.3297 C   0  0  0  0  0  0  0  0  0  0  0  0
  -15.6849   21.5885  -30.3866 C   0  0  0  0  0  0  0  0  0  0  0  0
  -15.6104   20.2815  -31.0524 N   0  0  0  0  0  0  0  0  0  0  0  0
  -15.9405   19.1406  -30.4393 C   0  0  0  0  0  0  0  0  0  0  0  0
  -15.7372   18.1410  -31.3947 C   0  0  0  0  0  0  0  0  0  0  0  0
  -15.9678   16.7426  -31.1859 C   0  0  0  0  0  0  0  0  0  0  0  0
  -15.0584   15.9442  -30.5314 C   0  0  0  0  0  0  0  0  0  0  0  0
  -15.3875   14.5977  -30.3962 C   0  0  0  0  0  0  0  0  0  0  0  0
  -16.5313   14.0822  -30.8735 N   0  0  0  0  0  0  0  0  0  0  0  0
  -17.4233   14.8582  -31.5135 C   0  0  0  0  0  0  0  0  0  0  0  0
  -18.6289   14.6038  -32.0810 N   0  0  0  0  0  0  0  0  0  0  0  0
  -19.1511   15.7177  -32.6046 C   0  0  0  0  0  0  0  0  0  0  0  0
  -20.4352   15.8029  -33.2911 C   0  0  0  0  0  0  0  0  0  0  0  0
  -20.7018   16.7883  -34.2174 C   0  0  0  0  0  0  0  0  0  0  0  0
  -21.9104   16.8805  -34.8797 C   0  0  0  0  0  0  0  0  0  0  0  0
  -22.8919   15.9351  -34.5934 C   0  0  0  0  0  0  0  0  0  0  0  0
  -22.6600   14.9354  -33.6726 C   0  0  0  0  0  0  0  0  0  0  0  0
  -23.6945   13.9459  -33.3825 C   0  0  0  0  0  0  0  0  0  0  0  0
  -23.4274   12.6124  -33.7977 N   0  0  0  0  0  0  0  0  0  0  0  0
  -22.5316   12.4631  -34.8969 C   0  0  0  0  0  0  0  0  0  0  0  0
  -23.2460   11.6647  -32.7431 C   0  0  0  0  0  0  0  0  0  0  0  0
  -21.4465   14.8749  -33.0329 C   0  0  0  0  0  0  0  0  0  0  0  0
  -18.2393   16.7189  -32.3592 C   0  0  0  0  0  0  0  0  0  0  0  0
  -17.1470   16.1996  -31.6750 C   0  0  0  0  0  0  0  0  0  0  0  0
  -15.2885   18.7233  -32.5562 C   0  0  0  0  0  0  0  0  0  0  0  0
  -14.9282   18.1416  -33.8340 C   0  0  0  0  0  0  0  0  0  0  0  0
  -15.5739   18.4147  -35.0218 C   0  0  0  0  0  0  0  0  0  0  0  0
  -15.1776   17.8339  -36.2151 C   0  0  0  0  0  0  0  0  0  0  0  0
  -14.1194   16.9535  -36.2806 C   0  0  0  0  0  0  0  0  0  0  0  0
  -13.7085   16.3536  -37.5104 N   0  0  0  0  0  0  0  0  0  0  0  0
  -14.0032   16.9595  -38.7692 C   0  0  0  0  0  0  0  0  0  0  0  0
  -14.8483   17.8901  -38.7496 O   0  0  0  0  0  0  0  0  0  0  0  0
  -13.3972   16.5572  -39.9770 N   0  0  0  0  0  0  0  0  0  0  0  0
  -13.7795   17.1947  -41.2140 C   0  0  0  0  0  0  0  0  0  0  0  0
  -12.3955   15.5191  -40.0201 C   0  0  0  0  0  0  0  0  0  0  0  0
  -13.4646   16.6710  -35.1001 C   0  0  0  0  0  0  0  0  0  0  0  0
  -13.8548   17.2460  -33.9107 C   0  0  0  0  0  0  0  0  0  0  0  0
  -15.2292   20.0408  -32.2887 N   0  0  0  0  0  0  0  0  0  0  0  0
  1  2  1  0
  2  3  1  0
  3  4  1  0
  4  5  2  0
  5  6  1  0
  6  7  2  0
  7  8  1  0
  8  9  2  0
  9 10  1  0
 10 11  1  0
 11 12  1  0
 12 13  1  0
 13 14  2  0
 14 15  1  0
 15 16  2  0
 16 17  1  0
 17 18  1  0
 18 19  1  0
 19 20  1  0
 19 21  1  0
 17 22  2  0
 12 23  2  0
 23 24  1  0
  5 25  1  0
 25 26  1  0
 26 27  2  0
 27 28  1  0
 28 29  2  0
 29 30  1  0
 30 31  1  0
 31 32  2  0
 31 33  1  0
 33 34  1  0
 33 35  1  0
 29 36  1  0
 36 37  2  0
 25 38  2  0
 38  3  1  0
 24  6  1  0
 37 26  1  0
 24 10  2  0
 22 13  1  0
M  END
$$$$
