
     RDKit          3D

 13 14  0  0  0  0  0  0  0  0999 V2000
  -19.7061   37.4706  -21.4059 N   0  0  0  0  0  0  0  0  0  0  0  0
  -18.5014   37.1833  -22.1633 C   0  0  1  0  0  0  0  0  0  0  0  0
  -18.2130   38.3484  -23.0203 C   0  0  0  0  0  0  0  0  0  0  0  0
  -19.0560   38.7247  -23.8752 O   0  0  0  0  0  0  0  0  0  0  0  0
  -17.0348   39.0782  -22.9410 O   0  0  0  0  0  0  0  0  0  0  0  0
  -17.3470   36.8116  -21.2751 C   0  0  0  0  0  0  0  0  0  0  0  0
  -16.5349   35.8476  -22.1213 C   0  0  0  0  0  0  0  0  0  0  0  0
  -17.5910   35.0574  -22.8820 C   0  0  1  0  0  0  0  0  0  0  0  0
  -18.8387   34.6633  -22.1237 C   0  0  2  0  0  0  0  0  0  0  0  0
  -19.5639   33.5073  -22.7313 C   0  0  0  0  0  0  0  0  0  0  0  0
  -19.4843   32.3648  -22.2185 O   0  0  0  0  0  0  0  0  0  0  0  0
  -20.3406   33.6519  -23.8677 O   0  0  0  0  0  0  0  0  0  0  0  0
  -18.7558   35.9477  -22.9722 C   0  0  1  0  0  0  0  0  0  0  0  0
  2  1  1  1
  2  3  1  0
  3  4  2  0
  3  5  1  0
  2  6  1  0
  6  7  1  0
  8  7  1  1
  8  9  1  0
  9 10  1  6
 10 11  2  0
 10 12  1  0
  9 13  1  0
 13  2  1  1
 13  8  1  0
M  END
$$$$
