
     RDKit          3D

 20 23  0  0  0  0  0  0  0  0999 V2000
  -18.1648   12.4874  -34.6114 C   0  0  0  0  0  0  0  0  0  0  0  0
  -18.8615   13.8484  -34.5300 C   0  0  2  0  0  0  0  0  0  0  0  0
  -20.1248   13.7522  -35.2851 C   0  0  0  0  0  0  0  0  0  0  0  0
  -20.7610   15.1281  -35.5297 C   0  0  0  0  0  0  0  0  0  0  0  0
  -19.7276   15.8505  -36.3676 C   0  0  1  0  0  0  0  0  0  0  0  0
  -20.2400   17.0573  -37.0488 C   0  0  1  0  0  0  0  0  0  0  0  0
  -21.6806   17.3813  -36.7146 C   0  0  0  0  0  0  0  0  0  0  0  0
  -19.4415   18.2525  -36.7040 C   0  0  0  0  0  0  0  0  0  0  0  0
  -19.1186   19.0838  -37.5862 O   0  0  0  0  0  0  0  0  0  0  0  0
  -19.0707   18.4144  -35.3868 O   0  0  0  0  0  0  0  0  0  0  0  0
  -18.5781   17.2964  -34.6720 C   0  0  2  0  0  0  0  0  0  0  0  0
  -17.3437   17.6633  -34.1785 O   0  0  0  0  0  0  0  0  0  0  0  0
  -16.2677   17.1936  -34.8493 C   0  0  1  0  0  0  0  0  0  0  0  0
  -15.0909   18.1680  -34.6979 C   0  0  0  0  0  0  0  0  0  0  0  0
  -15.8147   15.9073  -34.1561 C   0  0  0  0  0  0  0  0  0  0  0  0
  -17.0876   15.2457  -33.6707 C   0  0  0  0  0  0  0  0  0  0  0  0
  -17.9105   14.9066  -34.9254 C   0  0  2  0  0  0  0  0  0  0  0  0
  -18.4405   16.1036  -35.5980 C   0  0  1  0  0  0  0  0  0  0  0  0
  -17.5458   16.5498  -36.6025 O   0  0  0  0  0  0  0  0  0  0  0  0
  -16.4065   16.9269  -36.1690 O   0  0  0  0  0  0  0  0  0  0  0  0
  2  1  1  6
  2  3  1  0
  3  4  1  0
  5  4  1  1
  5  6  1  0
  6  7  1  1
  6  8  1  0
  8  9  2  0
  8 10  1  0
 11 10  1  6
 11 12  1  0
 12 13  1  0
 13 14  1  6
 13 15  1  0
 15 16  1  0
 17 16  1  1
 17 18  1  0
 18 19  1  6
 19 20  1  0
 17  2  1  0
 18  5  1  0
 18 11  1  0
 20 13  1  0
M  END
$$$$
