
     RDKit          3D

 21 23  0  0  0  0  0  0  0  0999 V2000
  -15.9766   -3.1915  -30.3526 N   0  0  0  0  0  0  0  0  0  0  0  0
  -16.0473   -2.0803  -31.2327 C   0  0  0  0  0  0  0  0  0  0  0  0
  -17.2303   -1.5373  -31.6171 N   0  0  0  0  0  0  0  0  0  0  0  0
  -17.0186   -0.5364  -32.4808 C   0  0  0  0  0  0  0  0  0  0  0  0
  -18.0208    0.3025  -33.1289 C   0  0  0  0  0  0  0  0  0  0  0  0
  -19.1397    0.7337  -32.4464 C   0  0  0  0  0  0  0  0  0  0  0  0
  -20.1009    1.5285  -33.0409 C   0  0  0  0  0  0  0  0  0  0  0  0
  -19.9424    1.9038  -34.3517 C   0  0  0  0  0  0  0  0  0  0  0  0
  -18.8514    1.4809  -35.0103 N   0  0  0  0  0  0  0  0  0  0  0  0
  -17.9128    0.7111  -34.4473 C   0  0  0  0  0  0  0  0  0  0  0  0
  -15.6905   -0.4717  -32.6209 N   0  0  0  0  0  0  0  0  0  0  0  0
  -15.0793   -1.4071  -31.8647 N   0  0  0  0  0  0  0  0  0  0  0  0
  -13.6975   -1.5961  -31.8739 C   0  0  0  0  0  0  0  0  0  0  0  0
  -13.2622   -2.6657  -31.2730 O   0  0  0  0  0  0  0  0  0  0  0  0
  -12.6836   -0.7607  -32.4610 C   0  0  0  0  0  0  0  0  0  0  0  0
  -13.0977    0.4265  -33.0784 C   0  0  0  0  0  0  0  0  0  0  0  0
  -12.1988    1.3167  -33.6122 C   0  0  0  0  0  0  0  0  0  0  0  0
  -10.8377    1.0107  -33.5266 C   0  0  0  0  0  0  0  0  0  0  0  0
   -9.6848    2.1262  -34.1986 Cl  0  0  0  0  0  0  0  0  0  0  0  0
  -10.4012   -0.1369  -32.9310 C   0  0  0  0  0  0  0  0  0  0  0  0
  -11.3427   -1.0174  -32.3987 C   0  0  0  0  0  0  0  0  0  0  0  0
  1  2  1  0
  2  3  2  0
  3  4  1  0
  4  5  1  0
  5  6  2  0
  6  7  1  0
  7  8  2  0
  8  9  1  0
  9 10  2  0
  4 11  2  0
 11 12  1  0
 12 13  1  0
 13 14  2  0
 13 15  1  0
 15 16  2  0
 16 17  1  0
 17 18  2  0
 18 19  1  0
 18 20  1  0
 20 21  2  0
 12  2  1  0
 21 15  1  0
 10  5  1  0
M  END
$$$$
