
     RDKit          3D

 12 12  0  0  0  0  0  0  0  0999 V2000
  -19.7530   39.0743  -23.0354 N   0  0  0  0  0  0  0  0  0  0  0  0
  -19.4394   37.6955  -22.8218 C   0  0  0  0  0  0  0  0  0  0  0  0
  -17.9990   37.4486  -22.4781 C   0  0  2  0  0  0  0  0  0  0  0  0
  -17.1383   37.9004  -23.4753 O   0  0  0  0  0  0  0  0  0  0  0  0
  -17.7167   36.0446  -22.1124 C   0  0  0  0  0  0  0  0  0  0  0  0
  -17.2639   35.6614  -20.8634 C   0  0  0  0  0  0  0  0  0  0  0  0
  -17.0120   34.3316  -20.5645 C   0  0  0  0  0  0  0  0  0  0  0  0
  -17.2050   33.3450  -21.5046 C   0  0  0  0  0  0  0  0  0  0  0  0
  -16.9710   32.0045  -21.2642 O   0  0  0  0  0  0  0  0  0  0  0  0
  -17.6563   33.7298  -22.7485 C   0  0  0  0  0  0  0  0  0  0  0  0
  -17.8661   32.7790  -23.7273 O   0  0  0  0  0  0  0  0  0  0  0  0
  -17.9046   35.0345  -23.0454 C   0  0  0  0  0  0  0  0  0  0  0  0
  1  2  1  0
  2  3  1  0
  3  4  1  6
  3  5  1  0
  5  6  2  0
  6  7  1  0
  7  8  2  0
  8  9  1  0
  8 10  1  0
 10 11  1  0
 10 12  2  0
 12  5  1  0
M  END
$$$$
