
     RDKit          3D

 33 37  0  0  0  0  0  0  0  0999 V2000
  -21.7174   20.8226  -31.9792 C   0  0  0  0  0  0  0  0  0  0  0  0
  -22.2865   19.7765  -31.0366 C   0  0  0  0  0  0  0  0  0  0  0  0
  -22.5579   18.5668  -31.6665 O   0  0  0  0  0  0  0  0  0  0  0  0
  -22.7354   18.4407  -33.0386 C   0  0  0  0  0  0  0  0  0  0  0  0
  -23.2179   19.3303  -33.8859 N   0  0  0  0  0  0  0  0  0  0  0  0
  -23.2244   18.8134  -35.1347 C   0  0  0  0  0  0  0  0  0  0  0  0
  -23.6203   19.3684  -36.3283 C   0  0  0  0  0  0  0  0  0  0  0  0
  -23.4914   18.5970  -37.4518 C   0  0  0  0  0  0  0  0  0  0  0  0
  -22.9863   17.3309  -37.3563 C   0  0  0  0  0  0  0  0  0  0  0  0
  -22.5740   16.7422  -36.1346 C   0  0  0  0  0  0  0  0  0  0  0  0
  -22.0665   15.4006  -36.1702 C   0  0  0  0  0  0  0  0  0  0  0  0
  -21.6666   14.9643  -37.3553 O   0  0  0  0  0  0  0  0  0  0  0  0
  -21.8891   14.4321  -35.2629 O   0  0  0  0  0  0  0  0  0  0  0  0
  -22.7013   17.5121  -35.0023 C   0  0  0  0  0  0  0  0  0  0  0  0
  -22.4059   17.2883  -33.7306 N   0  0  0  0  0  0  0  0  0  0  0  0
  -21.8857   16.1231  -33.0615 C   0  0  0  0  0  0  0  0  0  0  0  0
  -20.4290   16.1507  -32.8982 C   0  0  0  0  0  0  0  0  0  0  0  0
  -19.7398   15.1984  -32.2068 C   0  0  0  0  0  0  0  0  0  0  0  0
  -18.3434   15.2141  -32.0667 C   0  0  0  0  0  0  0  0  0  0  0  0
  -17.6562   16.2505  -32.6637 C   0  0  0  0  0  0  0  0  0  0  0  0
  -16.2081   16.2758  -32.5251 C   0  0  0  0  0  0  0  0  0  0  0  0
  -15.5033   15.1638  -33.0080 C   0  0  0  0  0  0  0  0  0  0  0  0
  -14.1309   15.1900  -32.8913 C   0  0  0  0  0  0  0  0  0  0  0  0
  -13.4324   16.2382  -32.3329 C   0  0  0  0  0  0  0  0  0  0  0  0
  -14.1830   17.3231  -31.8662 C   0  0  0  0  0  0  0  0  0  0  0  0
  -15.5597   17.3394  -31.9624 C   0  0  0  0  0  0  0  0  0  0  0  0
  -16.3438   18.4737  -31.4600 C   0  0  0  0  0  0  0  0  0  0  0  0
  -17.3220   18.3808  -30.5365 N   0  0  0  0  0  0  0  0  0  0  0  0
  -17.8003   19.5789  -30.3384 N   0  0  0  0  0  0  0  0  0  0  0  0
  -17.1546   20.4310  -31.1090 N   0  0  0  0  0  0  0  0  0  0  0  0
  -16.2561   19.7665  -31.8043 N   0  0  0  0  0  0  0  0  0  0  0  0
  -18.3079   17.2358  -33.3716 C   0  0  0  0  0  0  0  0  0  0  0  0
  -19.6734   17.1585  -33.4690 C   0  0  0  0  0  0  0  0  0  0  0  0
  1  2  1  0
  2  3  1  0
  3  4  1  0
  4  5  2  0
  5  6  1  0
  6  7  2  0
  7  8  1  0
  8  9  2  0
  9 10  1  0
 10 11  1  0
 11 12  2  0
 11 13  1  0
 10 14  2  0
 14 15  1  0
 15 16  1  0
 16 17  1  0
 17 18  2  0
 18 19  1  0
 19 20  2  0
 20 21  1  0
 21 22  2  0
 22 23  1  0
 23 24  2  0
 24 25  1  0
 25 26  2  0
 26 27  1  0
 27 28  1  0
 28 29  2  0
 29 30  1  0
 30 31  1  0
 20 32  1  0
 32 33  2  0
 15  4  1  0
 33 17  1  0
 14  6  1  0
 26 21  1  0
 31 27  2  0
M  END
$$$$
