
     RDKit          3D

 32 35  0  0  0  0  0  0  0  0999 V2000
  -18.1082   34.4247  -23.3370 C   0  0  0  0  0  0  0  0  0  0  0  0
  -17.5431   35.6025  -23.3703 C   0  0  0  0  0  0  0  0  0  0  0  0
  -17.7898   36.7900  -22.6503 C   0  0  0  0  0  0  0  0  0  0  0  0
  -17.0360   36.9408  -21.5773 O   0  0  0  0  0  0  0  0  0  0  0  0
  -18.6663   37.8136  -22.8555 N   0  0  0  0  0  0  0  0  0  0  0  0
  -20.1020   37.7447  -22.7938 C   0  0  0  0  0  0  0  0  0  0  0  0
  -20.4461   38.1942  -21.3685 C   0  0  0  0  0  0  0  0  0  0  0  0
  -19.4236   39.2816  -20.9733 C   0  0  0  0  0  0  0  0  0  0  0  0
  -19.0243   40.0541  -22.2100 C   0  0  1  0  0  0  0  0  0  0  0  0
  -18.3117   41.2625  -21.7797 N   0  0  0  0  0  0  0  0  0  0  0  0
  -17.1334   41.3638  -21.2299 N   0  0  0  0  0  0  0  0  0  0  0  0
  -16.8087   42.6513  -20.9701 C   0  0  0  0  0  0  0  0  0  0  0  0
  -15.5636   43.1372  -20.3759 C   0  0  0  0  0  0  0  0  0  0  0  0
  -15.1789   42.9249  -19.0764 C   0  0  0  0  0  0  0  0  0  0  0  0
  -13.9873   43.4455  -18.5620 C   0  0  0  0  0  0  0  0  0  0  0  0
  -13.1381   44.1994  -19.3393 C   0  0  0  0  0  0  0  0  0  0  0  0
  -11.9487   44.7327  -18.8662 O   0  0  0  0  0  0  0  0  0  0  0  0
  -11.8269   45.6074  -17.8325 C   0  0  0  0  0  0  0  0  0  0  0  0
  -12.9085   46.0340  -17.0993 C   0  0  0  0  0  0  0  0  0  0  0  0
  -12.7657   46.9323  -16.0413 C   0  0  0  0  0  0  0  0  0  0  0  0
  -11.5034   47.4092  -15.7177 C   0  0  0  0  0  0  0  0  0  0  0  0
  -10.4142   46.9905  -16.4429 C   0  0  0  0  0  0  0  0  0  0  0  0
  -10.5818   46.0920  -17.4960 C   0  0  0  0  0  0  0  0  0  0  0  0
  -13.5140   44.4183  -20.6470 C   0  0  0  0  0  0  0  0  0  0  0  0
  -14.6888   43.9057  -21.1547 C   0  0  0  0  0  0  0  0  0  0  0  0
  -17.8730   43.3999  -21.3968 C   0  0  0  0  0  0  0  0  0  0  0  0
  -18.0611   44.8622  -21.3822 C   0  0  0  0  0  0  0  0  0  0  0  0
  -17.0192   45.6689  -20.8910 N   0  0  0  0  0  0  0  0  0  0  0  0
  -19.1402   45.3651  -21.8085 O   0  0  0  0  0  0  0  0  0  0  0  0
  -18.8025   42.4965  -21.8997 C   0  0  0  0  0  0  0  0  0  0  0  0
  -20.0669   42.8741  -22.4471 N   0  0  0  0  0  0  0  0  0  0  0  0
  -18.1752   39.2129  -23.1234 C   0  0  0  0  0  0  0  0  0  0  0  0
  1  2  2  0
  2  3  1  0
  3  4  2  0
  3  5  1  0
  5  6  1  0
  6  7  1  0
  7  8  1  0
  8  9  1  0
  9 10  1  1
 10 11  1  0
 11 12  2  0
 12 13  1  0
 13 14  2  0
 14 15  1  0
 15 16  2  0
 16 17  1  0
 17 18  1  0
 18 19  2  0
 19 20  1  0
 20 21  2  0
 21 22  1  0
 22 23  2  0
 16 24  1  0
 24 25  2  0
 12 26  1  0
 26 27  1  0
 27 28  1  0
 27 29  2  0
 26 30  2  0
 30 31  1  0
  9 32  1  0
 32  5  1  0
 30 10  1  0
 25 13  1  0
 23 18  1  0
M  END
$$$$
