
     RDKit          3D

 32 35  0  0  0  0  0  0  0  0999 V2000
  -14.6189   18.5588  -39.3474 O   0  0  0  0  0  0  0  0  0  0  0  0
  -14.4999   17.6317  -38.5065 C   0  0  0  0  0  0  0  0  0  0  0  0
  -13.3747   16.8553  -38.5442 O   0  0  0  0  0  0  0  0  0  0  0  0
  -12.2067   17.1894  -39.2136 C   0  0  0  0  0  0  0  0  0  0  0  0
  -11.9175   16.7492  -40.4954 C   0  0  0  0  0  0  0  0  0  0  0  0
  -10.7529   17.0913  -41.1435 C   0  0  0  0  0  0  0  0  0  0  0  0
   -9.8330   17.8895  -40.5286 C   0  0  0  0  0  0  0  0  0  0  0  0
   -8.6165   18.2715  -41.1520 N   0  0  0  0  0  4  0  0  0  0  0  0
   -7.6841   18.7625  -40.4875 O   0  0  0  0  0  0  0  0  0  0  0  0
   -8.5053   18.0811  -42.5079 O   0  0  0  0  0  1  0  0  0  0  0  0
  -10.1005   18.3414  -39.2475 C   0  0  0  0  0  0  0  0  0  0  0  0
  -11.2722   17.9954  -38.5992 C   0  0  0  0  0  0  0  0  0  0  0  0
  -15.5477   17.4299  -37.5469 N   0  0  0  0  0  0  0  0  0  0  0  0
  -16.7792   18.1486  -37.6314 C   0  0  0  0  0  0  0  0  0  0  0  0
  -17.9089   17.2168  -37.1704 C   0  0  0  0  0  0  0  0  0  0  0  0
  -17.6713   16.8574  -35.8266 N   0  0  0  0  0  0  0  0  0  0  0  0
  -18.7134   16.9801  -34.8893 C   0  0  0  0  0  0  0  0  0  0  0  0
  -19.0920   15.7928  -34.1276 C   0  0  0  0  0  0  0  0  0  0  0  0
  -18.6873   14.5355  -34.5130 C   0  0  0  0  0  0  0  0  0  0  0  0
  -19.0949   13.4773  -33.7262 C   0  0  0  0  0  0  0  0  0  0  0  0
  -19.8730   13.6508  -32.6006 C   0  0  0  0  0  0  0  0  0  0  0  0
  -20.2814   14.9115  -32.2105 C   0  0  0  0  0  0  0  0  0  0  0  0
  -21.0638   15.0770  -31.0773 O   0  0  0  0  0  0  0  0  0  0  0  0
  -22.4307   14.8812  -31.1405 C   0  0  0  0  0  0  0  0  0  0  0  0
  -23.0802   15.0075  -32.3569 C   0  0  0  0  0  0  0  0  0  0  0  0
  -24.4400   14.8267  -32.4952 C   0  0  0  0  0  0  0  0  0  0  0  0
  -25.1914   14.5036  -31.3644 C   0  0  0  0  0  0  0  0  0  0  0  0
  -24.5707   14.3705  -30.1354 C   0  0  0  0  0  0  0  0  0  0  0  0
  -23.1884   14.5604  -30.0278 C   0  0  0  0  0  0  0  0  0  0  0  0
  -19.8709   15.9609  -32.9999 C   0  0  0  0  0  0  0  0  0  0  0  0
  -16.3358   16.9440  -35.3567 C   0  0  0  0  0  0  0  0  0  0  0  0
  -15.3749   16.4846  -36.4623 C   0  0  0  0  0  0  0  0  0  0  0  0
  1  2  2  0
  2  3  1  0
  3  4  1  0
  4  5  2  0
  5  6  1  0
  6  7  2  0
  7  8  1  0
  8  9  2  0
  8 10  1  0
  7 11  1  0
 11 12  2  0
  2 13  1  0
 13 14  1  0
 14 15  1  0
 15 16  1  0
 16 17  1  0
 17 18  1  0
 18 19  2  0
 19 20  1  0
 20 21  2  0
 21 22  1  0
 22 23  1  0
 23 24  1  0
 24 25  2  0
 25 26  1  0
 26 27  2  0
 27 28  1  0
 28 29  2  0
 22 30  2  0
 16 31  1  0
 31 32  1  0
 12  4  1  0
 32 13  1  0
 30 18  1  0
 29 24  1  0
M  CHG  2   8   1  10  -1
M  END
$$$$
