
     RDKit          3D

 33 34  0  0  0  0  0  0  0  0999 V2000
  -13.5625   17.4059  -39.4735 Cl  0  0  0  0  0  0  0  0  0  0  0  0
  -13.5614   17.4068  -39.4777 Cl  0  0  0  0  0  0  0  0  0  0  0  0
  -13.1695   15.2996  -33.2864 C   0  0  0  0  0  0  0  0  0  0  0  0
  -14.4214   14.8580  -33.6063 C   0  0  0  0  0  0  0  0  0  0  0  0
  -15.3367   15.6386  -34.2341 C   0  0  0  0  0  0  0  0  0  0  0  0
  -15.0254   16.9607  -34.5879 C   0  0  0  0  0  0  0  0  0  0  0  0
  -16.0670   17.7957  -35.1775 C   0  0  0  0  0  0  0  0  0  0  0  0
  -16.5009   17.6409  -36.5511 C   0  0  0  0  0  0  0  0  0  0  0  0
  -15.7021   17.8116  -37.7575 C   0  0  0  0  0  0  0  0  0  0  0  0
  -14.6110   17.0341  -38.0872 N   0  0  0  0  0  0  0  0  0  0  0  0
  -13.3645   17.0762  -37.4911 C   0  0  0  0  0  0  0  0  0  0  0  0
  -12.1750   17.0106  -38.4713 C   0  0  0  0  0  0  0  0  0  0  0  0
  -12.6451   16.6023  -39.7094 N   0  0  0  0  0  0  0  0  0  0  0  0
  -12.1118   17.1291  -40.9035 C   0  0  0  0  0  0  0  0  0  0  0  0
  -12.4262   18.5832  -41.1115 C   0  0  0  0  0  0  0  0  0  0  0  0
  -11.9053   19.0672  -42.2801 O   0  0  0  0  0  0  0  0  0  0  0  0
  -12.4549   18.4259  -43.3769 C   0  0  0  0  0  0  0  0  0  0  0  0
  -11.3753   17.7905  -44.1578 C   0  0  0  0  0  0  0  0  0  0  0  0
  -11.5303   16.5026  -44.6848 C   0  0  0  0  0  0  0  0  0  0  0  0
  -10.5244   15.9080  -45.4006 C   0  0  0  0  0  0  0  0  0  0  0  0
   -9.3122   16.5432  -45.6386 C   0  0  0  0  0  0  0  0  0  0  0  0
   -9.1608   17.8093  -45.1204 C   0  0  0  0  0  0  0  0  0  0  0  0
  -10.1846   18.4189  -44.3897 C   0  0  0  0  0  0  0  0  0  0  0  0
  -13.1877   19.4558  -44.1814 C   0  0  0  0  0  0  0  0  0  0  0  0
  -14.4268   19.1318  -44.7329 C   0  0  0  0  0  0  0  0  0  0  0  0
  -15.1219   20.0687  -45.4622 C   0  0  0  0  0  0  0  0  0  0  0  0
  -14.6300   21.3454  -45.6744 C   0  0  0  0  0  0  0  0  0  0  0  0
  -13.4136   21.6659  -45.1342 C   0  0  0  0  0  0  0  0  0  0  0  0
  -12.7144   20.7261  -44.4013 C   0  0  0  0  0  0  0  0  0  0  0  0
  -13.6395   15.5927  -39.8049 C   0  0  0  0  0  0  0  0  0  0  0  0
  -14.8532   15.8897  -38.9498 C   0  0  0  0  0  0  0  0  0  0  0  0
  -13.7483   17.3768  -34.2497 C   0  0  0  0  0  0  0  0  0  0  0  0
  -12.8216   16.5940  -33.6163 C   0  0  0  0  0  0  0  0  0  0  0  0
  3  4  2  0
  4  5  1  0
  5  6  2  0
  6  7  1  0
  7  8  1  0
  8  9  1  0
  9 10  1  0
 10 11  1  0
 11 12  1  0
 12 13  1  0
 13 14  1  0
 14 15  1  0
 15 16  1  0
 16 17  1  0
 17 18  1  0
 18 19  2  0
 19 20  1  0
 20 21  2  0
 21 22  1  0
 22 23  2  0
 17 24  1  0
 24 25  2  0
 25 26  1  0
 26 27  2  0
 27 28  1  0
 28 29  2  0
 13 30  1  0
 30 31  1  0
  6 32  1  0
 32 33  2  0
 33  3  1  0
 31 10  1  0
 23 18  1  0
 29 24  1  0
M  END
$$$$
