
     RDKit          3D

 28 30  0  0  0  0  0  0  0  0999 V2000
  -18.0252   53.3101  -23.3104 C   0  0  0  0  0  0  0  0  0  0  0  0
  -17.4040   52.1757  -22.5122 C   0  0  0  0  0  0  0  0  0  0  0  0
  -18.0049   52.1411  -21.2505 O   0  0  0  0  0  0  0  0  0  0  0  0
  -17.8802   51.0941  -20.3451 C   0  0  0  0  0  0  0  0  0  0  0  0
  -16.8070   50.1986  -20.4541 C   0  0  0  0  0  0  0  0  0  0  0  0
  -16.7084   49.1720  -19.5446 C   0  0  0  0  0  0  0  0  0  0  0  0
  -17.6419   48.9960  -18.5201 C   0  0  0  0  0  0  0  0  0  0  0  0
  -17.4429   47.8701  -17.6115 C   0  0  0  0  0  0  0  0  0  0  0  0
  -18.2707   46.6729  -17.9218 C   0  0  0  0  0  0  0  0  0  0  0  0
  -17.9569   45.8942  -19.0481 C   0  0  0  0  0  0  0  0  0  0  0  0
  -18.6542   44.7581  -19.3721 C   0  0  0  0  0  0  0  0  0  0  0  0
  -18.2257   44.0049  -20.5782 C   0  0  2  0  0  0  0  0  0  0  0  0
  -17.1170   43.2380  -20.3653 O   0  0  0  0  0  0  0  0  0  0  0  0
  -16.0193   43.4921  -21.1391 C   0  0  2  0  0  0  0  0  0  0  0  0
  -15.2590   45.0383  -20.6239 S   0  0  0  0  0  0  0  0  0  0  0  0
  -13.5521   45.1966  -21.1880 C   0  0  0  0  0  0  0  0  0  0  0  0
  -16.2974   43.4081  -22.5941 C   0  0  1  0  0  0  0  0  0  0  0  0
  -16.2915   42.0578  -23.0219 O   0  0  0  0  0  0  0  0  0  0  0  0
  -17.6368   43.9749  -22.9224 C   0  0  2  0  0  0  0  0  0  0  0  0
  -17.6665   44.6337  -24.1475 O   0  0  0  0  0  0  0  0  0  0  0  0
  -18.1586   44.8852  -21.8100 C   0  0  1  0  0  0  0  0  0  0  0  0
  -19.4585   45.2668  -22.2174 O   0  0  0  0  0  0  0  0  0  0  0  0
  -19.7021   44.3391  -18.5917 C   0  0  0  0  0  0  0  0  0  0  0  0
  -20.0260   45.0898  -17.4829 C   0  0  0  0  0  0  0  0  0  0  0  0
  -19.3164   46.2478  -17.1506 C   0  0  0  0  0  0  0  0  0  0  0  0
  -19.8189   47.1670  -15.7207 Cl  0  0  0  0  0  0  0  0  0  0  0  0
  -18.6733   49.8667  -18.4268 C   0  0  0  0  0  0  0  0  0  0  0  0
  -18.7821   50.9205  -19.3522 C   0  0  0  0  0  0  0  0  0  0  0  0
  1  2  1  0
  2  3  1  0
  3  4  1  0
  4  5  2  0
  5  6  1  0
  6  7  2  0
  7  8  1  0
  8  9  1  0
  9 10  2  0
 10 11  1  0
 12 11  1  1
 12 13  1  0
 13 14  1  0
 14 15  1  6
 15 16  1  0
 14 17  1  0
 17 18  1  1
 17 19  1  0
 19 20  1  6
 19 21  1  0
 21 22  1  6
 11 23  2  0
 23 24  1  0
 24 25  2  0
 25 26  1  0
  7 27  1  0
 27 28  2  0
 28  4  1  0
 25  9  1  0
 21 12  1  0
M  END
$$$$
