
     RDKit          3D

 24 25  0  0  0  0  0  0  0  0999 V2000
  -19.7508   14.0977  -34.4720 C   0  0  0  0  0  0  0  0  0  0  0  0
  -19.7915   15.0207  -35.6760 C   0  0  0  0  0  0  0  0  0  0  0  0
  -20.9835   14.7201  -36.5615 C   0  0  0  0  0  0  0  0  0  0  0  0
  -18.5163   14.9412  -36.4784 C   0  0  0  0  0  0  0  0  0  0  0  0
  -19.9517   16.3995  -35.1672 C   0  0  0  0  0  0  0  0  0  0  0  0
  -19.4943   16.7089  -33.9032 C   0  0  0  0  0  0  0  0  0  0  0  0
  -19.6399   17.9934  -33.4208 C   0  0  0  0  0  0  0  0  0  0  0  0
  -20.2424   18.9612  -34.2057 C   0  0  0  0  0  0  0  0  0  0  0  0
  -20.3800   20.3425  -33.6428 C   0  0  0  0  0  0  0  0  0  0  0  0
  -21.6641   20.2701  -32.3669 S   0  0  0  0  0  0  0  0  0  0  0  0
  -22.6018   21.7982  -32.4771 C   0  0  0  0  0  0  0  0  0  0  0  0
  -22.1162   22.8850  -33.1673 C   0  0  0  0  0  0  0  0  0  0  0  0
  -22.8146   24.0284  -33.2515 N   0  0  0  0  0  0  0  0  0  0  0  0
  -24.0028   24.1775  -32.6801 N   0  0  0  0  0  0  0  0  0  0  0  0
  -24.7614   25.4071  -32.7665 C   0  0  0  0  0  0  0  0  0  0  0  0
  -24.0351   26.4969  -33.5020 C   0  0  0  0  0  0  0  0  0  0  0  0
  -26.0504   25.1113  -33.5340 C   0  0  0  0  0  0  0  0  0  0  0  0
  -25.1867   25.9023  -31.4018 C   0  0  0  0  0  0  0  0  0  0  0  0
  -24.4921   23.1270  -32.0023 C   0  0  0  0  0  0  0  0  0  0  0  0
  -25.6164   23.2426  -31.4515 O   0  0  0  0  0  0  0  0  0  0  0  0
  -23.8383   21.9233  -31.8705 C   0  0  0  0  0  0  0  0  0  0  0  0
  -24.4688   20.5658  -30.9956 Cl  0  0  0  0  0  0  0  0  0  0  0  0
  -20.6975   18.6513  -35.4648 C   0  0  0  0  0  0  0  0  0  0  0  0
  -20.5489   17.3813  -35.9310 C   0  0  0  0  0  0  0  0  0  0  0  0
  1  2  1  0
  2  3  1  0
  2  4  1  0
  2  5  1  0
  5  6  2  0
  6  7  1  0
  7  8  2  0
  8  9  1  0
  9 10  1  0
 10 11  1  0
 11 12  1  0
 12 13  2  0
 13 14  1  0
 14 15  1  0
 15 16  1  0
 15 17  1  0
 15 18  1  0
 14 19  1  0
 19 20  2  0
 19 21  1  0
 21 22  1  0
  8 23  1  0
 23 24  2  0
 24  5  1  0
 21 11  2  0
M  END
$$$$
