
     RDKit          3D

  9  9  0  0  0  0  0  0  0  0999 V2000
  -18.3553   39.8561  -19.5569 N   0  0  0  0  0  0  0  0  0  0  0  0
  -18.0819   39.0892  -20.7121 C   0  0  0  0  0  0  0  0  0  0  0  0
  -17.5059   37.8608  -20.6083 N   0  0  0  0  0  0  0  0  0  0  0  0
  -17.2504   37.1378  -21.7279 C   0  0  0  0  0  0  0  0  0  0  0  0
  -16.7087   35.9868  -21.6032 O   0  0  0  0  0  0  0  0  0  0  0  0
  -17.5679   37.6392  -22.9372 N   0  0  0  0  0  0  0  0  0  0  0  0
  -18.1391   38.8550  -23.0565 C   0  0  0  0  0  0  0  0  0  0  0  0
  -18.4098   39.6108  -21.9358 C   0  0  0  0  0  0  0  0  0  0  0  0
  -18.9817   40.8343  -22.0145 F   0  0  0  0  0  0  0  0  0  0  0  0
  1  2  1  0
  2  3  2  0
  3  4  1  0
  4  5  2  0
  4  6  1  0
  6  7  1  0
  7  8  2  0
  8  9  1  0
  8  2  1  0
M  END
$$$$
