
     RDKit          3D

 24 26  0  0  0  0  0  0  0  0999 V2000
  -24.6120   22.8676  -30.9526 C   0  0  0  0  0  0  0  0  0  0  0  0
  -25.4694   22.4894  -32.0077 O   0  0  0  0  0  0  0  0  0  0  0  0
  -26.7085   21.9219  -31.6435 C   0  0  0  0  0  0  0  0  0  0  0  0
  -27.3071   20.9441  -32.4261 C   0  0  0  0  0  0  0  0  0  0  0  0
  -28.5116   20.3874  -32.0782 C   0  0  0  0  0  0  0  0  0  0  0  0
  -29.1404   20.8250  -30.9042 C   0  0  0  0  0  0  0  0  0  0  0  0
  -30.3527   20.2635  -30.5497 O   0  0  0  0  0  0  0  0  0  0  0  0
  -30.6075   18.8793  -30.5353 C   0  0  0  0  0  0  0  0  0  0  0  0
  -28.5971   21.7862  -30.0947 C   0  0  0  0  0  0  0  0  0  0  0  0
  -29.3416   22.3911  -28.6356 S   0  0  0  0  0  6  0  0  0  0  0  0
  -30.8297   22.5508  -28.9179 O   0  0  0  0  0  0  0  0  0  0  0  0
  -28.7512   23.7802  -28.3943 O   0  0  0  0  0  0  0  0  0  0  0  0
  -29.1042   21.4534  -27.2479 N   0  0  0  0  0  0  0  0  0  0  0  0
  -28.8952   20.0725  -27.1784 C   0  0  0  0  0  0  0  0  0  0  0  0
  -29.9766   19.2371  -26.8681 C   0  0  0  0  0  0  0  0  0  0  0  0
  -29.7816   17.9161  -26.8005 N   0  0  0  0  0  0  0  0  0  0  0  0
  -28.5803   17.3417  -27.0191 C   0  0  0  0  0  0  0  0  0  0  0  0
  -28.3896   15.9832  -26.9474 C   0  0  0  0  0  0  0  0  0  0  0  0
  -27.1678   15.3760  -27.1677 C   0  0  0  0  0  0  0  0  0  0  0  0
  -26.0799   16.1942  -27.4780 C   0  0  0  0  0  0  0  0  0  0  0  0
  -26.2539   17.5492  -27.5531 C   0  0  0  0  0  0  0  0  0  0  0  0
  -27.4869   18.1245  -27.3276 C   0  0  0  0  0  0  0  0  0  0  0  0
  -27.6845   19.4853  -27.3979 C   0  0  0  0  0  0  0  0  0  0  0  0
  -27.3650   22.3115  -30.5102 C   0  0  0  0  0  0  0  0  0  0  0  0
  1  2  1  0
  2  3  1  0
  3  4  2  0
  4  5  1  0
  5  6  2  0
  6  7  1  0
  7  8  1  0
  6  9  1  0
  9 10  1  0
 10 11  2  0
 10 12  2  0
 10 13  1  0
 13 14  1  0
 14 15  2  0
 15 16  1  0
 16 17  2  0
 17 18  1  0
 18 19  2  0
 19 20  1  0
 20 21  2  0
 21 22  1  0
 22 23  2  0
  9 24  2  0
 24  3  1  0
 23 14  1  0
 22 17  1  0
M  END
$$$$
