
     RDKit          3D

 25 26  0  0  0  0  0  0  0  0999 V2000
  -25.2544   15.4378  -25.1264 C   0  0  0  0  0  0  0  0  0  0  0  0
  -25.0503   16.1392  -26.4241 C   0  0  0  0  0  0  0  0  0  0  0  0
  -24.6454   15.4477  -27.5440 C   0  0  0  0  0  0  0  0  0  0  0  0
  -24.4619   16.1071  -28.7305 C   0  0  0  0  0  0  0  0  0  0  0  0
  -24.6744   17.4552  -28.8305 C   0  0  0  0  0  0  0  0  0  0  0  0
  -24.5032   18.2290  -30.0480 C   0  0  0  0  0  0  0  0  0  0  0  0
  -24.9834   17.8138  -31.1227 O   0  0  0  0  0  0  0  0  0  0  0  0
  -23.8029   19.4694  -30.1049 N   0  0  0  0  0  0  0  0  0  0  0  0
  -23.7246   20.2999  -31.2731 C   0  0  0  0  0  0  0  0  0  0  0  0
  -23.5492   19.5152  -32.5564 C   0  0  0  0  0  0  0  0  0  0  0  0
  -22.1235   19.6426  -33.0182 C   0  0  0  0  0  0  0  0  0  0  0  0
  -21.6076   18.4248  -33.6935 C   0  0  0  0  0  0  0  0  0  0  0  0
  -20.3338   18.5481  -34.4326 C   0  0  0  0  0  0  0  0  0  0  0  0
  -19.3562   17.4450  -34.1810 C   0  0  0  0  0  0  0  0  0  0  0  0
  -19.3313   16.4657  -34.9523 O   0  0  0  0  0  0  0  0  0  0  0  0
  -18.4709   17.5106  -33.0831 N   0  0  0  0  0  0  0  0  0  0  0  0
  -17.2871   16.7746  -32.8909 C   0  0  0  0  0  0  0  0  0  0  0  0
  -17.0700   15.4973  -33.3437 C   0  0  0  0  0  0  0  0  0  0  0  0
  -15.8948   14.7919  -33.1422 C   0  0  0  0  0  0  0  0  0  0  0  0
  -14.8857   15.4128  -32.4450 C   0  0  0  0  0  0  0  0  0  0  0  0
  -15.0844   16.6927  -31.9833 C   0  0  0  0  0  0  0  0  0  0  0  0
  -16.2466   17.3954  -32.1804 C   0  0  0  0  0  0  0  0  0  0  0  0
  -16.4055   18.7331  -31.6769 N   0  0  0  0  0  0  0  0  0  0  0  0
  -25.0791   18.1192  -27.6921 C   0  0  0  0  0  0  0  0  0  0  0  0
  -25.2761   17.4966  -26.4777 C   0  0  0  0  0  0  0  0  0  0  0  0
  1  2  1  0
  2  3  2  0
  3  4  1  0
  4  5  2  0
  5  6  1  0
  6  7  2  0
  6  8  1  0
  8  9  1  0
  9 10  1  0
 10 11  1  0
 11 12  1  0
 12 13  1  0
 13 14  1  0
 14 15  2  0
 14 16  1  0
 16 17  1  0
 17 18  2  0
 18 19  1  0
 19 20  2  0
 20 21  1  0
 21 22  2  0
 22 23  1  0
  5 24  1  0
 24 25  2  0
 25  2  1  0
 22 17  1  0
M  END
$$$$
