
     RDKit          3D

 37 40  0  0  0  0  0  0  0  0999 V2000
  -23.6153   46.7213  -27.9140 C   0  0  0  0  0  0  0  0  0  0  0  0
  -22.5239   45.6967  -28.1155 C   0  0  0  0  0  0  0  0  0  0  0  0
  -21.8865   45.3468  -26.9078 O   0  0  0  0  0  0  0  0  0  0  0  0
  -20.9236   44.3593  -26.8117 C   0  0  0  0  0  0  0  0  0  0  0  0
  -20.7048   43.6886  -27.8485 O   0  0  0  0  0  0  0  0  0  0  0  0
  -20.1684   44.0596  -25.6125 C   0  0  0  0  0  0  0  0  0  0  0  0
  -19.2180   43.0690  -25.6475 C   0  0  0  0  0  0  0  0  0  0  0  0
  -18.4586   42.7498  -24.5151 C   0  0  0  0  0  0  0  0  0  0  0  0
  -18.6667   43.4352  -23.3577 C   0  0  0  0  0  0  0  0  0  0  0  0
  -17.8990   43.1365  -22.2027 N   0  0  0  0  0  0  0  0  0  0  0  0
  -16.8717   43.9750  -21.9452 C   0  0  0  0  0  0  0  0  0  0  0  0
  -16.0969   43.6970  -20.8333 C   0  0  0  0  0  0  0  0  0  0  0  0
  -14.9341   44.5252  -20.4528 C   0  0  0  0  0  0  0  0  0  0  0  0
  -14.0165   43.8950  -19.5015 C   0  0  0  0  0  0  0  0  0  0  0  0
  -12.9936   43.0645  -19.9834 C   0  0  0  0  0  0  0  0  0  0  0  0
  -12.1254   42.4681  -19.1476 N   0  0  0  0  0  0  0  0  0  0  0  0
  -12.2135   42.6521  -17.8130 C   0  0  0  0  0  0  0  0  0  0  0  0
  -11.3013   42.0244  -16.9485 O   0  0  0  0  0  0  0  0  0  0  0  0
  -10.6533   40.8186  -17.3261 C   0  0  0  0  0  0  0  0  0  0  0  0
   -9.6830   40.4301  -16.2437 C   0  0  0  0  0  0  0  0  0  0  0  0
  -13.1782   43.4385  -17.3227 N   0  0  0  0  0  0  0  0  0  0  0  0
  -14.0755   44.0588  -18.1455 C   0  0  0  0  0  0  0  0  0  0  0  0
  -16.4210   42.6013  -20.0756 C   0  0  0  0  0  0  0  0  0  0  0  0
  -15.7724   42.2747  -19.0491 O   0  0  0  0  0  0  0  0  0  0  0  0
  -17.4629   41.7885  -20.3735 N   0  0  0  0  0  0  0  0  0  0  0  0
  -18.1910   42.0743  -21.4432 C   0  0  0  0  0  0  0  0  0  0  0  0
  -19.6047   41.0627  -21.9258 S   0  0  0  0  0  0  0  0  0  0  0  0
  -19.6351   39.5256  -20.9656 C   0  0  0  0  0  0  0  0  0  0  0  0
  -18.7952   38.5047  -21.6220 C   0  0  0  0  0  0  0  0  0  0  0  0
  -17.5157   38.2105  -21.1781 C   0  0  0  0  0  0  0  0  0  0  0  0
  -16.7250   37.2472  -21.7818 C   0  0  0  0  0  0  0  0  0  0  0  0
  -17.2457   36.5669  -22.8608 C   0  0  0  0  0  0  0  0  0  0  0  0
  -16.4755   35.6138  -23.4650 F   0  0  0  0  0  0  0  0  0  0  0  0
  -18.5187   36.8517  -23.3116 C   0  0  0  0  0  0  0  0  0  0  0  0
  -19.2873   37.8013  -22.7103 C   0  0  0  0  0  0  0  0  0  0  0  0
  -19.6084   44.4236  -23.3046 C   0  0  0  0  0  0  0  0  0  0  0  0
  -20.3742   44.7524  -24.4288 C   0  0  0  0  0  0  0  0  0  0  0  0
  1  2  1  0
  2  3  1  0
  3  4  1  0
  4  5  2  0
  4  6  1  0
  6  7  2  0
  7  8  1  0
  8  9  2  0
  9 10  1  0
 10 11  1  0
 11 12  2  0
 12 13  1  0
 13 14  1  0
 14 15  2  0
 15 16  1  0
 16 17  2  0
 17 18  1  0
 18 19  1  0
 19 20  1  0
 17 21  1  0
 21 22  2  0
 12 23  1  0
 23 24  2  0
 23 25  1  0
 25 26  2  0
 26 27  1  0
 27 28  1  0
 28 29  1  0
 29 30  2  0
 30 31  1  0
 31 32  2  0
 32 33  1  0
 32 34  1  0
 34 35  2  0
  9 36  1  0
 36 37  2  0
 37  6  1  0
 26 10  1  0
 35 29  1  0
 22 14  1  0
M  END
$$$$
