
     RDKit          3D

 15 16  0  0  0  0  0  0  0  0999 V2000
  -17.5476   37.0168  -21.2610 O   0  0  0  0  0  0  0  0  0  0  0  0
  -17.7882   38.2481  -21.2341 C   0  0  0  0  0  0  0  0  0  0  0  0
  -17.6343   39.1287  -20.1413 N   0  0  0  0  0  0  0  0  0  0  0  0
  -17.8560   40.4740  -20.3812 C   0  0  0  0  0  0  0  0  0  0  0  0
  -17.7492   41.3841  -19.4720 O   0  0  0  0  0  0  0  0  0  0  0  0
  -18.2249   40.8265  -21.7400 C   0  0  0  0  0  0  0  0  0  0  0  0
  -18.3945   42.0381  -22.2308 C   0  0  0  0  0  0  0  0  0  0  0  0
  -17.3609   43.0377  -22.1521 C   0  0  0  0  0  0  0  0  0  0  0  0
  -17.2189   44.0197  -23.1048 C   0  0  0  0  0  0  0  0  0  0  0  0
  -16.1933   44.9303  -22.9231 C   0  0  0  0  0  0  0  0  0  0  0  0
  -15.3344   44.8851  -21.8487 C   0  0  0  0  0  0  0  0  0  0  0  0
  -15.4968   43.9021  -20.9200 C   0  0  0  0  0  0  0  0  0  0  0  0
  -14.3512   43.7499  -19.3855 Br  0  0  0  0  0  0  0  0  0  0  0  0
  -16.4882   42.9903  -21.0590 C   0  0  0  0  0  0  0  0  0  0  0  0
  -18.4001   39.2535  -22.5754 S   0  0  0  0  0  0  0  0  0  0  0  0
  1  2  2  0
  2  3  1  0
  3  4  1  0
  4  5  2  0
  4  6  1  0
  6  7  2  0
  7  8  1  0
  8  9  2  0
  9 10  1  0
 10 11  2  0
 11 12  1  0
 12 13  1  0
 12 14  2  0
  6 15  1  0
 15  2  1  0
 14  8  1  0
M  END
$$$$
