
     RDKit          3D

 35 41  0  0  0  0  0  0  0  0999 V2000
  -23.8226   16.4099  -30.8591 O   0  0  0  0  0  0  0  0  0  0  0  0
  -23.2780   16.6004  -31.9508 C   0  0  0  0  0  0  0  0  0  0  0  0
  -22.6916   15.4268  -32.6912 C   0  0  0  0  0  0  0  0  0  0  0  0
  -21.2326   15.7896  -32.9416 C   0  0  0  0  0  0  0  0  0  0  0  0
  -21.1510   17.0471  -33.7088 C   0  0  0  0  0  0  0  0  0  0  0  0
  -20.1230   17.2332  -34.6481 C   0  0  0  0  0  0  0  0  0  0  0  0
  -19.2210   16.2532  -34.8882 O   0  0  0  0  0  0  0  0  0  0  0  0
  -17.8676   16.4504  -35.0854 C   0  0  0  0  0  0  0  0  0  0  0  0
  -16.9874   16.6791  -34.0529 C   0  0  0  0  0  0  0  0  0  0  0  0
  -15.6590   16.8673  -34.3052 C   0  0  0  0  0  0  0  0  0  0  0  0
  -15.1863   16.8280  -35.6222 C   0  0  0  0  0  0  0  0  0  0  0  0
  -16.0262   16.6035  -36.6798 C   0  0  0  0  0  0  0  0  0  0  0  0
  -17.3745   16.4146  -36.3989 C   0  0  0  0  0  0  0  0  0  0  0  0
  -15.2304   16.6206  -37.9299 C   0  0  2  0  0  0  0  0  0  0  0  0
  -13.8487   16.8075  -37.4461 C   0  0  2  0  0  0  0  0  0  0  0  0
  -13.8828   16.9961  -36.0617 O   0  0  0  0  0  0  0  0  0  0  0  0
  -14.5494   17.9006  -38.2429 C   0  0  1  0  0  0  0  0  0  0  0  0
  -13.9375   18.1464  -39.5510 C   0  0  0  0  0  0  0  0  0  0  0  0
  -14.4792   18.0268  -40.7747 N   0  0  0  0  0  0  0  0  0  0  0  0
  -13.5861   18.3460  -41.7215 C   0  0  0  0  0  0  0  0  0  0  0  0
  -13.5799   18.4048  -43.1009 C   0  0  0  0  0  0  0  0  0  0  0  0
  -12.4448   18.7893  -43.7898 C   0  0  0  0  0  0  0  0  0  0  0  0
  -11.2888   19.1253  -43.1442 C   0  0  0  0  0  0  0  0  0  0  0  0
  -10.0470   19.5432  -43.8320 C   0  0  0  0  0  0  0  0  0  0  0  0
   -8.9974   18.7457  -43.4010 F   0  0  0  0  0  0  0  0  0  0  0  0
   -9.7182   20.8433  -43.5097 F   0  0  0  0  0  0  0  0  0  0  0  0
  -10.1379   19.3967  -45.1981 F   0  0  0  0  0  0  0  0  0  0  0  0
  -11.2853   19.0696  -41.7662 C   0  0  0  0  0  0  0  0  0  0  0  0
  -12.4103   18.6877  -41.0611 C   0  0  0  0  0  0  0  0  0  0  0  0
  -12.6732   18.5512  -39.7490 N   0  0  0  0  0  0  0  0  0  0  0  0
  -20.0780   18.4351  -35.3051 C   0  0  0  0  0  0  0  0  0  0  0  0
  -21.0079   19.4323  -35.0566 C   0  0  0  0  0  0  0  0  0  0  0  0
  -21.9760   19.2422  -34.1657 N   0  0  0  0  0  0  0  0  0  0  0  0
  -22.0439   18.0645  -33.5042 C   0  0  0  0  0  0  0  0  0  0  0  0
  -23.1450   17.8534  -32.5987 N   0  0  0  0  0  0  0  0  0  0  0  0
  1  2  2  0
  2  3  1  0
  3  4  1  0
  4  5  1  0
  5  6  2  0
  6  7  1  0
  7  8  1  0
  8  9  2  0
  9 10  1  0
 10 11  2  0
 11 12  1  0
 12 13  2  0
 14 12  1  1
 14 15  1  0
 15 16  1  1
 15 17  1  0
 17 18  1  6
 18 19  2  0
 19 20  1  0
 20 21  2  0
 21 22  1  0
 22 23  2  0
 23 24  1  0
 24 25  1  0
 24 26  1  0
 24 27  1  0
 23 28  1  0
 28 29  2  0
 29 30  1  0
  6 31  1  0
 31 32  2  0
 32 33  1  0
 33 34  2  0
 34 35  1  0
 35  2  1  0
 34  5  1  0
 13  8  1  0
 17 14  1  0
 30 18  1  0
 16 11  1  0
 29 20  1  0
M  END
$$$$
