
     RDKit          3D

 37 39  0  0  0  0  0  0  0  0999 V2000
  -14.1109   43.6380  -18.8049 C   0  0  0  0  0  0  0  0  0  0  0  0
  -14.4220   42.1697  -18.9290 C   0  0  0  0  0  0  0  0  0  0  0  0
  -15.6854   42.0448  -19.6389 N   0  0  0  0  0  0  0  0  0  0  0  0
  -15.7273   41.9530  -21.0780 C   0  0  0  0  0  0  0  0  0  0  0  0
  -16.7315   40.9868  -21.6128 C   0  0  0  0  0  0  0  0  0  0  0  0
  -17.7400   40.5560  -20.6928 N   0  0  0  0  0  0  0  0  0  0  0  0
  -18.5348   39.4115  -21.0046 C   0  0  0  0  0  0  0  0  0  0  0  0
  -19.4386   39.0122  -20.1931 O   0  0  0  0  0  0  0  0  0  0  0  0
  -18.3578   38.6811  -22.2078 N   0  0  0  0  0  0  0  0  0  0  0  0
  -19.1882   37.5225  -22.4796 C   0  0  1  0  0  0  0  0  0  0  0  0
  -20.0266   37.7172  -23.6805 C   0  0  0  0  0  0  0  0  0  0  0  0
  -20.8629   36.8439  -24.0110 O   0  0  0  0  0  0  0  0  0  0  0  0
  -19.9384   38.8733  -24.5098 N   0  0  0  0  0  0  0  0  0  0  0  0
  -20.7822   38.9968  -25.6588 C   0  0  2  0  0  0  0  0  0  0  0  0
  -20.1495   39.4195  -26.9165 C   0  0  0  0  0  0  0  0  0  0  0  0
  -19.4350   38.7539  -27.7433 O   0  0  0  0  0  0  0  0  0  0  0  0
  -20.6375   40.7356  -26.7992 N   0  0  0  0  0  0  0  0  0  0  0  0
  -20.8309   42.1440  -26.9908 C   0  0  1  0  0  0  0  0  0  0  0  0
  -22.2320   42.3460  -27.4388 C   0  0  0  0  0  0  0  0  0  0  0  0
  -23.1468   42.7440  -26.6963 O   0  0  0  0  0  0  0  0  0  0  0  0
  -22.5185   42.0692  -28.7675 O   0  0  0  0  0  1  0  0  0  0  0  0
  -20.5717   42.8200  -25.6576 C   0  0  0  0  0  0  0  0  0  0  0  0
  -19.1082   43.0887  -25.4608 C   0  0  0  0  0  0  0  0  0  0  0  0
  -21.3527   44.0773  -25.4674 C   0  0  0  0  0  0  0  0  0  0  0  0
  -21.1694   41.5234  -24.5035 S   0  0  0  0  0  0  0  0  0  0  0  0
  -21.5596   40.2717  -25.7843 C   0  0  2  0  0  0  0  0  0  0  0  0
  -18.3625   36.2956  -22.5862 C   0  0  0  0  0  0  0  0  0  0  0  0
  -18.4130   35.3618  -23.5805 C   0  0  0  0  0  0  0  0  0  0  0  0
  -17.5823   34.2307  -23.5706 C   0  0  0  0  0  0  0  0  0  0  0  0
  -16.6804   34.0186  -22.5537 C   0  0  0  0  0  0  0  0  0  0  0  0
  -16.6188   34.9536  -21.5440 C   0  0  0  0  0  0  0  0  0  0  0  0
  -17.4345   36.0538  -21.5636 C   0  0  0  0  0  0  0  0  0  0  0  0
  -17.9858   41.2235  -19.4642 C   0  0  0  0  0  0  0  0  0  0  0  0
  -19.1074   41.1412  -18.8710 O   0  0  0  0  0  0  0  0  0  0  0  0
  -16.8897   42.0242  -18.8904 C   0  0  0  0  0  0  0  0  0  0  0  0
  -17.0580   42.6264  -17.8134 O   0  0  0  0  0  0  0  0  0  0  0  0
  -18.5052   40.2237  -22.9609 Na  0  0  0  0  0 15  0  0  0  0  0  0
  1  2  1  0
  2  3  1  0
  3  4  1  0
  4  5  1  0
  5  6  1  0
  6  7  1  0
  7  8  2  0
  7  9  1  0
 10  9  1  6
 10 11  1  0
 11 12  2  0
 11 13  1  0
 14 13  1  1
 14 15  1  0
 15 16  2  0
 15 17  1  0
 17 18  1  0
 18 19  1  1
 19 20  2  0
 19 21  1  0
 18 22  1  0
 22 23  1  0
 22 24  1  0
 22 25  1  0
 26 25  1  1
 10 27  1  0
 27 28  2  0
 28 29  1  0
 29 30  2  0
 30 31  1  0
 31 32  2  0
  6 33  1  0
 33 34  2  0
 33 35  1  0
 35 36  2  0
 35  3  1  0
 26 14  1  0
 32 27  1  0
 26 17  1  0
M  CHG  2  21  -1  37   1
M  END
$$$$
