
     RDKit          3D

 19 21  0  0  0  0  0  0  0  0999 V2000
  -16.2871   44.1553  -22.1792 C   0  0  0  0  0  0  0  0  0  0  0  0
  -16.9012   42.8034  -22.1234 C   0  0  0  0  0  0  0  0  0  0  0  0
  -17.1284   42.1830  -20.9034 C   0  0  0  0  0  0  0  0  0  0  0  0
  -17.6905   40.9427  -20.8238 C   0  0  0  0  0  0  0  0  0  0  0  0
  -17.8983   40.3524  -19.4799 C   0  0  0  0  0  0  0  0  0  0  0  0
  -18.0387   40.2963  -21.9948 C   0  0  0  0  0  0  0  0  0  0  0  0
  -18.6250   39.0009  -21.8966 N   0  0  0  0  0  0  0  0  0  0  0  0
  -17.8705   37.8038  -21.8315 C   0  0  0  0  0  0  0  0  0  0  0  0
  -16.6185   37.9033  -21.8807 O   0  0  0  0  0  0  0  0  0  0  0  0
  -18.4839   36.4845  -21.7117 C   0  0  0  0  0  0  0  0  0  0  0  0
  -17.4407   35.3870  -21.8778 C   0  0  0  0  0  0  0  0  0  0  0  0
  -18.1098   34.4598  -22.8643 C   0  0  0  0  0  0  0  0  0  0  0  0
  -19.3436   33.9101  -22.2072 C   0  0  0  0  0  0  0  0  0  0  0  0
  -20.3768   35.0486  -22.2259 C   0  0  0  0  0  0  0  0  0  0  0  0
  -19.5562   36.2065  -22.7303 C   0  0  0  0  0  0  0  0  0  0  0  0
  -18.7298   35.4954  -23.8158 C   0  0  0  0  0  0  0  0  0  0  0  0
  -17.8116   40.9155  -23.2073 C   0  0  0  0  0  0  0  0  0  0  0  0
  -18.2112   40.1639  -24.4496 C   0  0  0  0  0  0  0  0  0  0  0  0
  -17.2460   42.1638  -23.2869 C   0  0  0  0  0  0  0  0  0  0  0  0
  1  2  1  0
  2  3  2  0
  3  4  1  0
  4  5  1  0
  4  6  2  0
  6  7  1  0
  7  8  1  0
  8  9  2  0
  8 10  1  0
 10 11  1  0
 11 12  1  0
 12 13  1  0
 13 14  1  0
 14 15  1  0
 15 16  1  0
  6 17  1  0
 17 18  1  0
 17 19  2  0
 19  2  1  0
 15 10  1  0
 16 12  1  0
M  END
$$$$
