
     RDKit          3D

 35 38  0  0  0  0  0  0  0  0999 V2000
  -36.8481    1.2444  -43.2245 N   0  0  0  0  0  0  0  0  0  0  0  0
  -37.5789    1.5044  -42.4246 C   0  0  0  0  0  0  0  0  0  0  0  0
  -38.5321    1.8314  -41.3692 C   0  0  0  0  0  0  0  0  0  0  0  0
  -39.6632    2.5785  -41.6149 C   0  0  0  0  0  0  0  0  0  0  0  0
  -40.5312    2.9268  -40.6341 C   0  0  0  0  0  0  0  0  0  0  0  0
  -40.3407    2.5529  -39.2990 C   0  0  0  0  0  0  0  0  0  0  0  0
  -41.2755    3.0067  -38.2843 C   0  0  0  0  0  0  0  0  0  0  0  0
  -42.3193    3.9083  -38.6483 N   0  0  0  0  0  0  0  0  0  0  0  0
  -43.6939    3.6280  -38.4587 C   0  0  0  0  0  0  0  0  0  0  0  0
  -43.9847    2.5376  -37.9197 O   0  0  0  0  0  0  0  0  0  0  0  0
  -44.7951    4.5632  -38.8503 C   0  0  0  0  0  0  0  0  0  0  0  0
  -44.8862    4.5927  -40.3642 C   0  0  0  0  0  0  0  0  0  0  0  0
  -44.0718    5.6665  -40.9912 C   0  0  0  0  0  0  0  0  0  0  0  0
  -44.8479    6.3997  -42.0839 C   0  0  0  0  0  0  0  0  0  0  0  0
  -43.8580    7.3842  -42.6792 C   0  0  0  0  0  0  0  0  0  0  0  0
  -44.4573    8.6149  -43.0942 N   0  0  0  0  0  0  0  0  0  0  0  0
  -45.0161    9.2947  -41.9702 C   0  0  0  0  0  0  0  0  0  0  0  0
  -43.9029    9.9364  -41.1767 C   0  0  0  0  0  0  0  0  0  0  0  0
  -43.2102   10.8513  -42.0377 N   0  0  0  0  0  0  0  0  0  0  0  0
  -42.3837   11.8194  -41.4295 C   0  0  0  0  0  0  0  0  0  0  0  0
  -41.2072   12.2276  -42.1117 C   0  0  0  0  0  0  0  0  0  0  0  0
  -40.3536   13.1160  -41.5201 C   0  0  0  0  0  0  0  0  0  0  0  0
  -40.6125   13.6250  -40.2705 C   0  0  0  0  0  0  0  0  0  0  0  0
  -41.7498   13.2278  -39.6207 C   0  0  0  0  0  0  0  0  0  0  0  0
  -42.6664   12.3089  -40.1922 C   0  0  0  0  0  0  0  0  0  0  0  0
  -43.8410   11.9653  -39.4453 C   0  0  0  0  0  0  0  0  0  0  0  0
  -45.0778   12.4929  -39.9209 C   0  0  0  0  0  0  0  0  0  0  0  0
  -46.2355   12.1641  -39.2783 C   0  0  0  0  0  0  0  0  0  0  0  0
  -46.2995   11.3698  -38.2142 C   0  0  0  0  0  0  0  0  0  0  0  0
  -45.1054   10.8237  -37.7038 C   0  0  0  0  0  0  0  0  0  0  0  0
  -43.9277   11.1592  -38.3633 C   0  0  0  0  0  0  0  0  0  0  0  0
  -43.3351   10.7688  -43.4498 C   0  0  0  0  0  0  0  0  0  0  0  0
  -43.5685    9.3707  -43.9120 C   0  0  0  0  0  0  0  0  0  0  0  0
  -39.2178    1.8072  -39.0510 C   0  0  0  0  0  0  0  0  0  0  0  0
  -38.3254    1.4496  -40.0627 C   0  0  0  0  0  0  0  0  0  0  0  0
  1  2  3  0
  2  3  1  0
  3  4  2  0
  4  5  1  0
  5  6  2  0
  6  7  1  0
  7  8  1  0
  8  9  1  0
  9 10  2  0
  9 11  1  0
 11 12  1  0
 12 13  1  0
 13 14  1  0
 14 15  1  0
 15 16  1  0
 16 17  1  0
 17 18  1  0
 18 19  1  0
 19 20  1  0
 20 21  2  0
 21 22  1  0
 22 23  2  0
 23 24  1  0
 24 25  2  0
 25 26  1  0
 26 27  2  0
 27 28  1  0
 28 29  2  0
 29 30  1  0
 30 31  2  0
 19 32  1  0
 32 33  1  0
  6 34  1  0
 34 35  2  0
 35  3  1  0
 33 16  1  0
 25 20  1  0
 31 26  1  0
M  END
$$$$
