
     RDKit          3D

 31 34  0  0  0  0  0  0  0  0999 V2000
  -16.8093   22.6180  -42.5601 C   0  0  0  0  0  0  0  0  0  0  0  0
  -17.2762   22.2961  -43.9331 C   0  0  0  0  0  0  0  0  0  0  0  0
  -18.5309   21.8058  -44.1244 N   0  0  0  0  0  0  0  0  0  0  0  0
  -19.0075   21.4966  -45.3463 C   0  0  0  0  0  0  0  0  0  0  0  0
  -18.1977   21.6825  -46.4435 C   0  0  0  0  0  0  0  0  0  0  0  0
  -18.8325   21.2759  -48.0233 Cl  0  0  0  0  0  0  0  0  0  0  0  0
  -16.9192   22.1815  -46.2541 C   0  0  0  0  0  0  0  0  0  0  0  0
  -16.4332   22.4974  -45.0028 C   0  0  0  0  0  0  0  0  0  0  0  0
  -15.1012   23.0109  -44.8645 N   0  0  0  0  0  0  0  0  0  0  0  0
  -14.0075   22.5672  -45.6594 C   0  0  0  0  0  0  0  0  0  0  0  0
  -13.6923   21.1601  -45.2594 C   0  0  0  0  0  0  0  0  0  0  0  0
  -14.0797   19.9913  -45.8259 C   0  0  0  0  0  0  0  0  0  0  0  0
  -13.6411   18.8453  -45.2485 C   0  0  0  0  0  0  0  0  0  0  0  0
  -12.8676   18.9267  -44.1757 C   0  0  0  0  0  0  0  0  0  0  0  0
  -12.2504   17.8459  -43.3489 C   0  0  0  0  0  0  0  0  0  0  0  0
  -12.4467   16.6512  -43.6323 O   0  0  0  0  0  0  0  0  0  0  0  0
  -11.4517   18.1812  -42.2562 N   0  0  0  0  0  0  0  0  0  0  0  0
  -10.8617   17.2301  -41.3360 C   0  0  1  0  0  0  0  0  0  0  0  0
   -9.5050   17.6315  -40.8752 C   0  0  0  0  0  0  0  0  0  0  0  0
   -9.2035   19.0835  -40.8651 C   0  0  0  0  0  0  0  0  0  0  0  0
   -8.7443   19.4430  -42.2879 C   0  0  0  0  0  0  0  0  0  0  0  0
   -7.3241   18.9565  -42.3287 C   0  0  0  0  0  0  0  0  0  0  0  0
   -6.8415   18.9660  -40.8988 C   0  0  0  0  0  0  0  0  0  0  0  0
   -8.0109   19.4667  -40.0552 C   0  0  0  0  0  0  0  0  0  0  0  0
  -11.7856   16.7945  -40.2782 C   0  0  0  0  0  0  0  0  0  0  0  0
  -12.2865   17.6776  -39.5015 O   0  0  0  0  0  0  0  0  0  0  0  0
  -12.1585   15.4542  -40.0644 N   0  0  0  0  0  0  0  0  0  0  0  0
  -12.6942   15.0447  -38.7938 C   0  0  0  0  0  0  0  0  0  0  0  0
  -14.2194   14.8710  -38.8295 C   0  0  0  0  0  0  0  0  0  0  0  0
  -13.5811   15.9414  -38.0119 C   0  0  0  0  0  0  0  0  0  0  0  0
  -12.7103   20.6350  -43.9138 S   0  0  0  0  0  0  0  0  0  0  0  0
  1  2  1  0
  2  3  2  0
  3  4  1  0
  4  5  2  0
  5  6  1  0
  5  7  1  0
  7  8  2  0
  8  9  1  0
  9 10  1  0
 10 11  1  0
 11 12  2  0
 12 13  1  0
 13 14  2  0
 14 15  1  0
 15 16  2  0
 15 17  1  0
 17 18  1  0
 18 19  1  1
 19 20  1  0
 20 21  1  0
 21 22  1  0
 22 23  1  0
 23 24  1  0
 18 25  1  0
 25 26  2  0
 25 27  1  0
 27 28  1  0
 28 29  1  0
 29 30  1  0
 14 31  1  0
  8  2  1  0
 31 11  1  0
 24 20  1  0
 30 28  1  0
M  END
$$$$
