
     RDKit          3D

 36 40  0  0  0  0  0  0  0  0999 V2000
  -25.1726   40.2570  -29.6463 C   0  0  0  0  0  0  0  0  0  0  0  0
  -24.0727   40.7766  -28.7427 C   0  0  0  0  0  0  0  0  0  0  0  0
  -23.1783   39.7639  -28.3763 O   0  0  0  0  0  0  0  0  0  0  0  0
  -21.8425   40.1192  -28.1774 C   0  0  0  0  0  0  0  0  0  0  0  0
  -21.4878   41.3105  -28.2666 O   0  0  0  0  0  0  0  0  0  0  0  0
  -20.8455   39.1571  -27.8699 N   0  0  0  0  0  0  0  0  0  0  0  0
  -21.1150   38.1168  -26.9247 C   0  0  2  0  0  0  0  0  0  0  0  0
  -21.6432   38.6654  -25.6061 C   0  0  0  0  0  0  0  0  0  0  0  0
  -20.5051   39.2041  -24.7533 C   0  0  0  0  0  0  0  0  0  0  0  0
  -19.4828   38.1181  -24.4443 C   0  0  2  0  0  0  0  0  0  0  0  0
  -19.8986   36.9009  -25.2139 C   0  0  1  0  0  0  0  0  0  0  0  0
  -19.9092   37.2360  -26.6763 C   0  0  0  0  0  0  0  0  0  0  0  0
  -18.9329   35.7881  -24.8816 C   0  0  0  0  0  0  0  0  0  0  0  0
  -19.2365   35.3772  -23.4573 C   0  0  1  0  0  0  0  0  0  0  0  0
  -18.1741   34.3774  -23.0808 C   0  0  0  0  0  0  0  0  0  0  0  0
  -18.3476   33.1599  -22.9202 O   0  0  0  0  0  0  0  0  0  0  0  0
  -17.0101   35.1516  -22.9689 O   0  0  0  0  0  0  0  0  0  0  0  0
  -17.3769   36.4651  -22.5303 C   0  0  2  0  0  0  0  0  0  0  0  0
  -16.8320   36.6120  -21.1211 C   0  0  0  0  0  0  0  0  0  0  0  0
  -18.8674   36.5356  -22.5768 C   0  0  1  0  0  0  0  0  0  0  0  0
  -19.4323   37.8395  -22.9769 C   0  0  1  0  0  0  0  0  0  0  0  0
  -18.7291   38.9074  -22.2120 C   0  0  0  0  0  0  0  0  0  0  0  0
  -17.7046   39.5901  -22.6300 C   0  0  0  0  0  0  0  0  0  0  0  0
  -17.2127   40.7832  -21.9153 C   0  0  0  0  0  0  0  0  0  0  0  0
  -17.4166   40.8976  -20.5557 C   0  0  0  0  0  0  0  0  0  0  0  0
  -16.9706   41.9970  -19.8622 C   0  0  0  0  0  0  0  0  0  0  0  0
  -16.3059   43.0109  -20.5255 C   0  0  0  0  0  0  0  0  0  0  0  0
  -15.8443   44.1651  -19.7650 C   0  0  0  0  0  0  0  0  0  0  0  0
  -16.2414   45.4296  -20.1283 C   0  0  0  0  0  0  0  0  0  0  0  0
  -15.8081   46.5377  -19.4108 C   0  0  0  0  0  0  0  0  0  0  0  0
  -14.9813   46.3738  -18.3357 C   0  0  0  0  0  0  0  0  0  0  0  0
  -14.5730   45.1304  -17.9550 C   0  0  0  0  0  0  0  0  0  0  0  0
  -13.7531   44.9792  -16.8874 F   0  0  0  0  0  0  0  0  0  0  0  0
  -14.9998   44.0278  -18.6631 C   0  0  0  0  0  0  0  0  0  0  0  0
  -16.1135   42.8750  -21.8843 C   0  0  0  0  0  0  0  0  0  0  0  0
  -16.5675   41.7745  -22.5398 N   0  0  0  0  0  0  0  0  0  0  0  0
  1  2  1  0
  2  3  1  0
  3  4  1  0
  4  5  2  0
  4  6  1  0
  7  6  1  6
  7  8  1  0
  8  9  1  0
 10  9  1  1
 10 11  1  0
 11 12  1  6
 11 13  1  0
 14 13  1  6
 14 15  1  0
 15 16  2  0
 15 17  1  0
 17 18  1  0
 18 19  1  1
 20 18  1  6
 20 21  1  0
 21 22  1  1
 22 23  2  0
 23 24  1  0
 24 25  2  0
 25 26  1  0
 26 27  2  0
 27 28  1  0
 28 29  2  0
 29 30  1  0
 30 31  2  0
 31 32  1  0
 32 33  1  0
 32 34  2  0
 27 35  1  0
 35 36  2  0
 12  7  1  0
 20 14  1  0
 36 24  1  0
 21 10  1  0
 34 28  1  0
M  END
$$$$
