
     RDKit          3D

 27 29  0  0  0  0  0  0  0  0999 V2000
  -20.2130   43.7981  -20.0492 N   0  0  0  0  0  0  0  0  0  0  0  0
  -19.1133   43.1213  -20.6189 C   0  0  0  0  0  0  0  0  0  0  0  0
  -17.8755   43.6261  -20.6595 N   0  0  0  0  0  0  0  0  0  0  0  0
  -16.8205   43.0108  -21.1898 C   0  0  0  0  0  0  0  0  0  0  0  0
  -17.0297   41.7815  -21.7256 N   0  0  0  0  0  0  0  0  0  0  0  0
  -18.2454   41.2111  -21.7212 C   0  0  0  0  0  0  0  0  0  0  0  0
  -19.3256   41.8584  -21.1699 C   0  0  0  0  0  0  0  0  0  0  0  0
  -20.3685   41.0425  -21.3210 N   0  0  0  0  0  0  0  0  0  0  0  0
  -19.9830   39.8996  -21.9503 C   0  0  0  0  0  0  0  0  0  0  0  0
  -18.6771   40.0074  -22.1944 N   0  0  0  0  0  0  0  0  0  0  0  0
  -17.8125   39.0457  -22.8461 C   0  0  2  0  0  0  0  0  0  0  0  0
  -18.5150   38.1922  -23.6470 O   0  0  0  0  0  0  0  0  0  0  0  0
  -17.9191   36.9537  -23.6386 C   0  0  2  0  0  0  0  0  0  0  0  0
  -18.9861   35.9180  -23.4176 C   0  0  0  0  0  0  0  0  0  0  0  0
  -19.0880   35.5234  -22.0905 O   0  0  0  0  0  0  0  0  0  0  0  0
  -20.0040   34.1503  -21.8741 P   0  0  0  0  0  5  0  0  0  0  0  0
  -20.0873   33.8468  -20.3754 O   0  0  0  0  0  0  0  0  0  0  0  0
  -21.5741   34.4704  -22.4332 O   0  0  0  0  0  0  0  0  0  0  0  0
  -19.3471   32.7926  -22.5987 O   0  0  0  0  0  0  0  0  0  0  0  0
  -20.3183   31.4394  -22.4936 P   0  0  0  0  0  5  0  0  0  0  0  0
  -21.7152   31.6774  -23.0142 O   0  0  0  0  0  0  0  0  0  0  0  0
  -19.6155   30.2320  -23.4822 O   0  0  0  0  0  0  0  0  0  0  0  0
  -20.3714   30.7964  -20.9292 O   0  0  0  0  0  0  0  0  0  0  0  0
  -16.8648   36.9386  -22.5728 C   0  0  1  0  0  0  0  0  0  0  0  0
  -15.5942   37.1576  -23.1262 O   0  0  0  0  0  0  0  0  0  0  0  0
  -17.2359   38.1520  -21.7461 C   0  0  1  0  0  0  0  0  0  0  0  0
  -16.1478   38.7271  -21.1265 O   0  0  0  0  0  0  0  0  0  0  0  0
  1  2  1  0
  2  3  2  0
  3  4  1  0
  4  5  2  0
  5  6  1  0
  6  7  2  0
  7  8  1  0
  8  9  2  0
  9 10  1  0
 11 10  1  1
 11 12  1  0
 12 13  1  0
 13 14  1  1
 14 15  1  0
 15 16  1  0
 16 17  2  0
 16 18  1  0
 16 19  1  0
 19 20  1  0
 20 21  2  0
 20 22  1  0
 20 23  1  0
 13 24  1  0
 24 25  1  6
 24 26  1  0
 26 27  1  6
  7  2  1  0
 26 11  1  0
 10  6  1  0
M  END
$$$$
