
     RDKit          3D

 19 21  0  0  0  0  0  0  0  0999 V2000
  -13.0581   11.7736  -26.4092 C   0  0  0  0  0  0  0  0  0  0  0  0
  -12.8731   11.8322  -27.8893 C   0  0  0  0  0  0  0  0  0  0  0  0
  -13.9060   12.6773  -28.5509 C   0  0  0  0  0  0  0  0  0  0  0  0
  -15.0010   12.1620  -29.1945 C   0  0  0  0  0  0  0  0  0  0  0  0
  -15.9416   12.9970  -29.7997 C   0  0  0  0  0  0  0  0  0  0  0  0
  -15.7860   14.3609  -29.7610 C   0  0  0  0  0  0  0  0  0  0  0  0
  -16.7331   15.2204  -30.3712 N   0  0  0  0  0  0  0  0  0  0  0  0
  -16.5384   15.5607  -31.5985 C   0  0  0  0  0  0  0  0  0  0  0  0
  -15.3041   15.3400  -32.1680 C   0  0  0  0  0  0  0  0  0  0  0  0
  -15.0453   15.6928  -33.4970 C   0  0  0  0  0  0  0  0  0  0  0  0
  -13.7156   15.4429  -34.0738 C   0  0  0  0  0  0  0  0  0  0  0  0
  -16.0655   16.2528  -34.1707 N   0  0  0  0  0  0  0  0  0  0  0  0
  -17.2701   16.4643  -33.6031 C   0  0  0  0  0  0  0  0  0  0  0  0
  -18.4302   16.9910  -34.0352 N   0  0  0  0  0  0  0  0  0  0  0  0
  -19.3517   16.9707  -33.0490 C   0  0  0  0  0  0  0  0  0  0  0  0
  -18.7503   16.4225  -31.9909 N   0  0  0  0  0  0  0  0  0  0  0  0
  -17.5074   16.1181  -32.3154 N   0  0  0  0  0  0  0  0  0  0  0  0
  -14.6831   14.8673  -29.1122 C   0  0  0  0  0  0  0  0  0  0  0  0
  -13.7398   14.0325  -28.5054 C   0  0  0  0  0  0  0  0  0  0  0  0
  1  2  1  0
  2  3  1  0
  3  4  2  0
  4  5  1  0
  5  6  2  0
  6  7  1  0
  7  8  2  0
  8  9  1  0
  9 10  2  0
 10 11  1  0
 10 12  1  0
 12 13  1  0
 13 14  2  0
 14 15  1  0
 15 16  2  0
 16 17  1  0
  6 18  1  0
 18 19  2  0
 19  3  1  0
 17  8  1  0
 17 13  1  0
M  END
$$$$
