
     RDKit          3D

 17 19  0  0  0  0  0  0  0  0999 V2000
  -19.7583   18.6080  -34.4533 C   0  0  0  0  0  0  0  0  0  0  0  0
  -20.2393   17.2547  -34.0425 C   0  0  0  0  0  0  0  0  0  0  0  0
  -21.4544   16.9786  -34.2126 O   0  0  0  0  0  0  0  0  0  0  0  0
  -19.3467   16.2773  -33.4638 C   0  0  0  0  0  0  0  0  0  0  0  0
  -19.8275   15.0457  -33.0737 C   0  0  0  0  0  0  0  0  0  0  0  0
  -19.0279   14.0814  -32.5199 C   0  0  0  0  0  0  0  0  0  0  0  0
  -17.6978   14.3127  -32.3313 C   0  0  0  0  0  0  0  0  0  0  0  0
  -17.1627   15.5224  -32.7012 C   0  0  0  0  0  0  0  0  0  0  0  0
  -18.0063   16.4918  -33.2663 C   0  0  0  0  0  0  0  0  0  0  0  0
  -15.7941   15.8338  -32.5364 N   0  0  0  0  0  0  0  0  0  0  0  0
  -14.8034   15.0226  -32.0033 C   0  0  0  0  0  0  0  0  0  0  0  0
  -13.4819   15.4859  -31.9091 C   0  0  0  0  0  0  0  0  0  0  0  0
  -12.4554   14.7434  -31.3958 C   0  0  0  0  0  0  0  0  0  0  0  0
  -12.7151   13.4568  -30.9371 C   0  0  0  0  0  0  0  0  0  0  0  0
  -14.0200   12.9846  -31.0242 C   0  0  0  0  0  0  0  0  0  0  0  0
  -15.0101   13.7488  -31.5384 C   0  0  0  0  0  0  0  0  0  0  0  0
  -16.6443   13.0546  -31.6065 S   0  0  0  0  0  0  0  0  0  0  0  0
  1  2  1  0
  2  3  2  0
  2  4  1  0
  4  5  2  0
  5  6  1  0
  6  7  2  0
  7  8  1  0
  8  9  2  0
  8 10  1  0
 10 11  1  0
 11 12  2  0
 12 13  1  0
 13 14  2  0
 14 15  1  0
 15 16  2  0
 16 17  1  0
  9  4  1  0
 16 11  1  0
 17  7  1  0
M  END
$$$$
