
     RDKit          3D

 22 22  0  0  0  0  0  0  0  0999 V2000
  -13.8307   15.8594  -30.9061 C   0  0  0  0  0  0  0  0  0  0  0  0
  -15.3608   15.8983  -30.9530 C   0  0  0  0  0  0  0  0  0  0  0  0
  -15.8743   15.1802  -32.1738 C   0  0  0  0  0  0  0  0  0  0  0  0
  -15.7472   17.3320  -31.0113 C   0  0  0  0  0  0  0  0  0  0  0  0
  -17.2508   17.4946  -31.1600 C   0  0  2  0  0  0  0  0  0  0  0  0
  -17.5190   17.1441  -32.5564 N   0  0  0  0  0  0  0  0  0  0  0  0
  -18.8107   16.7926  -32.9672 C   0  0  0  0  0  0  0  0  0  0  0  0
  -19.6845   16.6806  -32.0358 O   0  0  0  0  0  0  0  0  0  0  0  0
  -19.1895   16.5481  -34.3827 C   0  0  1  0  0  0  0  0  0  0  0  0
  -18.2966   15.5926  -34.9425 O   0  0  0  0  0  0  0  0  0  0  0  0
  -20.5538   15.9186  -34.4275 C   0  0  2  0  0  0  0  0  0  0  0  0
  -20.6569   15.1156  -35.6253 N   0  0  0  0  0  0  0  0  0  0  0  0
  -21.6139   16.9687  -34.3065 C   0  0  0  0  0  0  0  0  0  0  0  0
  -22.9187   16.2798  -34.4643 C   0  0  0  0  0  0  0  0  0  0  0  0
  -23.5108   15.7139  -33.3746 C   0  0  0  0  0  0  0  0  0  0  0  0
  -24.7271   15.0804  -33.5500 C   0  0  0  0  0  0  0  0  0  0  0  0
  -25.3502   15.0047  -34.7757 C   0  0  0  0  0  0  0  0  0  0  0  0
  -24.7307   15.5818  -35.8477 C   0  0  0  0  0  0  0  0  0  0  0  0
  -23.5060   16.2236  -35.6891 C   0  0  0  0  0  0  0  0  0  0  0  0
  -17.7442   18.8241  -30.8192 C   0  0  0  0  0  0  0  0  0  0  0  0
  -17.6100   19.8345  -31.5428 O   0  0  0  0  0  0  0  0  0  0  0  0
  -18.4282   19.0601  -29.6097 O   0  0  0  0  0  0  0  0  0  0  0  0
  1  2  1  0
  2  3  1  0
  2  4  1  0
  5  4  1  6
  5  6  1  0
  6  7  1  0
  7  8  2  0
  7  9  1  0
  9 10  1  1
  9 11  1  0
 11 12  1  6
 11 13  1  0
 13 14  1  0
 14 15  2  0
 15 16  1  0
 16 17  2  0
 17 18  1  0
 18 19  2  0
  5 20  1  0
 20 21  2  0
 20 22  1  0
 19 14  1  0
M  END
$$$$
