
     RDKit          3D

 33 37  0  0  0  0  0  0  0  0999 V2000
  -20.5038   32.8393  -23.1905 C   0  0  0  0  0  0  0  0  0  0  0  0
  -19.2412   33.5811  -23.3875 C   0  0  0  0  0  0  0  0  0  0  0  0
  -18.3178   33.0092  -24.0097 O   0  0  0  0  0  0  0  0  0  0  0  0
  -19.0193   34.9311  -22.8986 C   0  0  0  0  0  0  0  0  0  0  0  0
  -18.5046   35.1066  -21.6321 C   0  0  0  0  0  0  0  0  0  0  0  0
  -18.1738   33.9555  -20.7624 C   0  0  0  0  0  0  0  0  0  0  0  0
  -18.2765   36.3904  -21.1239 C   0  0  0  0  0  0  0  0  0  0  0  0
  -17.7606   36.5734  -19.8531 C   0  0  0  0  0  0  0  0  0  0  0  0
  -17.5737   37.8187  -19.4430 N   0  0  0  0  0  0  0  0  0  0  0  0
  -17.8645   38.8779  -20.2089 C   0  0  0  0  0  0  0  0  0  0  0  0
  -17.6298   40.1838  -19.6792 N   0  0  0  0  0  0  0  0  0  0  0  0
  -17.7542   41.3352  -20.4994 C   0  0  0  0  0  0  0  0  0  0  0  0
  -18.2346   41.2746  -21.7777 C   0  0  0  0  0  0  0  0  0  0  0  0
  -18.3312   42.4413  -22.5318 C   0  0  0  0  0  0  0  0  0  0  0  0
  -17.9579   43.6536  -22.0301 C   0  0  0  0  0  0  0  0  0  0  0  0
  -18.0365   44.8653  -22.7574 N   0  0  0  0  0  0  0  0  0  0  0  0
  -17.9463   44.9224  -24.1843 C   0  0  0  0  0  0  0  0  0  0  0  0
  -16.7928   45.8683  -24.5125 C   0  0  0  0  0  0  0  0  0  0  0  0
  -16.8824   47.1268  -23.8400 N   0  0  0  0  0  0  0  0  0  0  0  0
  -18.0516   47.2769  -23.0090 C   0  0  0  0  0  0  0  0  0  0  0  0
  -18.2176   46.1187  -22.0491 C   0  0  0  0  0  0  0  0  0  0  0  0
  -17.4768   43.6574  -20.7257 C   0  0  0  0  0  0  0  0  0  0  0  0
  -17.3818   42.5396  -19.9965 N   0  0  0  0  0  0  0  0  0  0  0  0
  -18.3638   38.6870  -21.4386 N   0  0  0  0  0  0  0  0  0  0  0  0
  -18.5855   37.4634  -21.9359 C   0  0  0  0  0  0  0  0  0  0  0  0
  -19.0921   37.2689  -23.1814 N   0  0  0  0  0  0  0  0  0  0  0  0
  -19.3982   38.4006  -23.9926 C   0  0  0  0  0  0  0  0  0  0  0  0
  -20.8770   38.6783  -24.1050 C   0  0  0  0  0  0  0  0  0  0  0  0
  -21.2483   38.6046  -25.5553 C   0  0  0  0  0  0  0  0  0  0  0  0
  -20.0181   38.2267  -26.3160 C   0  0  0  0  0  0  0  0  0  0  0  0
  -18.8457   38.2940  -25.3934 C   0  0  0  0  0  0  0  0  0  0  0  0
  -19.3151   36.0279  -23.6788 C   0  0  0  0  0  0  0  0  0  0  0  0
  -19.7864   35.9302  -24.8411 O   0  0  0  0  0  0  0  0  0  0  0  0
  1  2  1  0
  2  3  2  0
  2  4  1  0
  4  5  2  0
  5  6  1  0
  5  7  1  0
  7  8  2  0
  8  9  1  0
  9 10  2  0
 10 11  1  0
 11 12  1  0
 12 13  2  0
 13 14  1  0
 14 15  2  0
 15 16  1  0
 16 17  1  0
 17 18  1  0
 18 19  1  0
 19 20  1  0
 20 21  1  0
 15 22  1  0
 22 23  2  0
 10 24  1  0
 24 25  2  0
 25 26  1  0
 26 27  1  0
 27 28  1  0
 28 29  1  0
 29 30  1  0
 30 31  1  0
 26 32  1  0
 32 33  2  0
 32  4  1  0
 25  7  1  0
 31 27  1  0
 23 12  1  0
 21 16  1  0
M  END
$$$$
