
     RDKit          3D

 28 31  0  0  0  0  0  0  0  0999 V2000
  -30.4807   22.2795  -29.2847 O   0  0  0  0  0  0  0  0  0  0  0  0
  -29.3311   22.3108  -29.7936 C   0  0  0  0  0  0  0  0  0  0  0  0
  -28.9887   23.0844  -30.8180 N   0  0  0  0  0  0  0  0  0  0  0  0
  -27.6908   22.8907  -31.1309 C   0  0  0  0  0  0  0  0  0  0  0  0
  -26.8200   23.4005  -32.0706 C   0  0  0  0  0  0  0  0  0  0  0  0
  -25.5084   22.9980  -32.1500 C   0  0  0  0  0  0  0  0  0  0  0  0
  -25.0906   22.0386  -31.2263 C   0  0  0  0  0  0  0  0  0  0  0  0
  -25.9534   21.5223  -30.2822 C   0  0  0  0  0  0  0  0  0  0  0  0
  -27.2613   21.9319  -30.2125 C   0  0  0  0  0  0  0  0  0  0  0  0
  -28.2708   21.5827  -29.3985 N   0  0  0  0  0  0  0  0  0  0  0  0
  -28.1855   20.6152  -28.3313 C   0  0  0  0  0  0  0  0  0  0  0  0
  -28.7778   21.0947  -27.0552 C   0  0  0  0  0  0  0  0  0  0  0  0
  -28.8390   20.0732  -26.0370 N   0  0  0  0  0  0  0  0  0  0  0  0
  -27.8412   19.0760  -26.0904 C   0  0  0  0  0  0  0  0  0  0  0  0
  -28.2428   17.7805  -26.7655 C   0  0  0  0  0  0  0  0  0  0  0  0
  -29.5077   17.3698  -26.1684 N   0  0  0  0  0  0  0  0  0  0  0  0
  -29.6613   16.1035  -25.5391 C   0  0  0  0  0  0  0  0  0  0  0  0
  -30.8740   15.4494  -25.5364 C   0  0  0  0  0  0  0  0  0  0  0  0
  -31.0390   14.2160  -24.9449 C   0  0  0  0  0  0  0  0  0  0  0  0
  -29.9809   13.6162  -24.3426 C   0  0  0  0  0  0  0  0  0  0  0  0
  -28.7566   14.2030  -24.3073 C   0  0  0  0  0  0  0  0  0  0  0  0
  -27.6150   13.5322  -23.6457 C   0  0  0  0  0  0  0  0  0  0  0  0
  -27.0327   14.3384  -22.7061 F   0  0  0  0  0  0  0  0  0  0  0  0
  -26.7010   13.0878  -24.5790 F   0  0  0  0  0  0  0  0  0  0  0  0
  -28.1007   12.4053  -22.9916 F   0  0  0  0  0  0  0  0  0  0  0  0
  -28.6230   15.4509  -24.9152 C   0  0  0  0  0  0  0  0  0  0  0  0
  -30.5676   18.3529  -26.2952 C   0  0  0  0  0  0  0  0  0  0  0  0
  -30.1485   19.6643  -25.6732 C   0  0  0  0  0  0  0  0  0  0  0  0
  1  2  2  0
  2  3  1  0
  3  4  1  0
  4  5  2  0
  5  6  1  0
  6  7  2  0
  7  8  1  0
  8  9  2  0
  9 10  1  0
 10 11  1  0
 11 12  1  0
 12 13  1  0
 13 14  1  0
 14 15  1  0
 15 16  1  0
 16 17  1  0
 17 18  2  0
 18 19  1  0
 19 20  2  0
 20 21  1  0
 21 22  1  0
 22 23  1  0
 22 24  1  0
 22 25  1  0
 21 26  2  0
 16 27  1  0
 27 28  1  0
 10  2  1  0
 28 13  1  0
  9  4  1  0
 26 17  1  0
M  END
$$$$
