
     RDKit          3D

 20 22  0  0  0  0  0  0  0  0999 V2000
  -27.4581   21.0810  -26.8870 N   0  0  0  0  0  0  0  0  0  0  0  0
  -28.6570   20.6031  -27.4648 C   0  0  0  0  0  0  0  0  0  0  0  0
  -29.4395   19.6525  -26.8188 C   0  0  0  0  0  0  0  0  0  0  0  0
  -30.6003   19.2173  -27.4221 C   0  0  0  0  0  0  0  0  0  0  0  0
  -31.0037   19.7008  -28.6486 C   0  0  0  0  0  0  0  0  0  0  0  0
  -32.1780   19.2893  -29.3050 N   0  0  0  0  0  0  0  0  0  0  0  0
  -30.1890   20.6494  -29.2552 C   0  0  0  0  0  0  0  0  0  0  0  0
  -29.0284   21.1148  -28.7004 C   0  0  0  0  0  0  0  0  0  0  0  0
  -28.1880   22.1112  -29.3548 C   0  0  0  0  0  0  0  0  0  0  0  0
  -27.1408   22.4808  -28.7736 O   0  0  0  0  0  0  0  0  0  0  0  0
  -28.5952   22.6355  -30.6508 C   0  0  0  0  0  0  0  0  0  0  0  0
  -27.8212   23.5822  -31.3000 C   0  0  0  0  0  0  0  0  0  0  0  0
  -26.6345   24.0431  -30.7088 O   0  0  0  0  0  0  0  0  0  0  0  0
  -28.1982   24.0877  -32.5320 C   0  0  0  0  0  0  0  0  0  0  0  0
  -29.3590   23.6550  -33.1394 C   0  0  0  0  0  0  0  0  0  0  0  0
  -30.1135   22.7104  -32.4718 C   0  0  0  0  0  0  0  0  0  0  0  0
  -31.2761   22.2765  -33.0793 O   0  0  0  0  0  0  0  0  0  0  0  0
  -29.7771   22.1844  -31.2523 C   0  0  0  0  0  0  0  0  0  0  0  0
  -30.5854   21.1880  -30.5620 C   0  0  0  0  0  0  0  0  0  0  0  0
  -31.6341   20.7798  -31.0830 O   0  0  0  0  0  0  0  0  0  0  0  0
  1  2  1  0
  2  3  2  0
  3  4  1  0
  4  5  2  0
  5  6  1  0
  5  7  1  0
  7  8  2  0
  8  9  1  0
  9 10  2  0
  9 11  1  0
 11 12  2  0
 12 13  1  0
 12 14  1  0
 14 15  2  0
 15 16  1  0
 16 17  1  0
 16 18  2  0
 18 19  1  0
 19 20  2  0
  8  2  1  0
 18 11  1  0
 19  7  1  0
M  END
$$$$
