
     RDKit          3D

 32 34  0  0  0  0  0  0  0  0999 V2000
  -14.7489   22.0358  -47.4910 O   0  0  0  0  0  0  0  0  0  0  0  0
  -14.2691   22.8731  -46.6980 C   0  0  0  0  0  0  0  0  0  0  0  0
  -13.7316   22.4451  -45.3946 C   0  0  0  0  0  0  0  0  0  0  0  0
  -14.3757   21.0625  -45.0844 C   0  0  0  0  0  0  0  0  0  0  0  0
  -13.8977   20.5562  -43.7854 C   0  0  0  0  0  0  0  0  0  0  0  0
  -14.6611   19.5559  -43.0435 C   0  0  0  0  0  0  0  0  0  0  0  0
  -14.2658   19.0334  -41.7349 C   0  0  0  0  0  0  0  0  0  0  0  0
  -14.7827   17.6986  -41.3498 C   0  0  0  0  0  0  0  0  0  0  0  0
  -14.2641   17.2588  -40.0548 N   0  0  0  0  0  0  0  0  0  0  0  0
  -14.2609   18.0529  -38.8803 C   0  0  0  0  0  0  0  0  0  0  0  0
  -13.4840   19.0412  -38.8424 O   0  0  0  0  0  0  0  0  0  0  0  0
  -15.1226   17.7636  -37.7228 C   0  0  0  0  0  0  0  0  0  0  0  0
  -16.4809   17.7519  -37.7664 C   0  0  0  0  0  0  0  0  0  0  0  0
  -17.1454   17.4652  -36.6079 N   0  0  0  0  0  0  0  0  0  0  0  0
  -16.5346   17.2027  -35.4638 C   0  0  0  0  0  0  0  0  0  0  0  0
  -17.2317   16.9002  -34.2406 N   0  0  0  0  0  0  0  0  0  0  0  0
  -16.4947   17.0261  -33.0446 C   0  0  0  0  0  0  0  0  0  0  0  0
  -15.9238   18.2063  -32.6906 C   0  0  0  0  0  0  0  0  0  0  0  0
  -15.1869   18.3168  -31.5207 C   0  0  0  0  0  0  0  0  0  0  0  0
  -15.0049   17.2437  -30.6755 C   0  0  0  0  0  0  0  0  0  0  0  0
  -15.5894   16.0596  -31.0490 C   0  0  0  0  0  0  0  0  0  0  0  0
  -16.3198   15.9411  -32.2046 C   0  0  0  0  0  0  0  0  0  0  0  0
  -18.5819   16.5085  -34.3550 C   0  0  0  0  0  0  0  0  0  0  0  0
  -18.9798   15.3467  -34.9786 C   0  0  0  0  0  0  0  0  0  0  0  0
  -20.3410   15.0713  -35.0494 C   0  0  0  0  0  0  0  0  0  0  0  0
  -21.2937   15.9198  -34.5177 C   0  0  0  0  0  0  0  0  0  0  0  0
  -20.8884   17.0728  -33.8988 C   0  0  0  0  0  0  0  0  0  0  0  0
  -19.5515   17.3406  -33.8311 C   0  0  0  0  0  0  0  0  0  0  0  0
  -15.1992   17.2197  -35.4437 N   0  0  0  0  0  0  0  0  0  0  0  0
  -14.4680   17.4898  -36.5278 C   0  0  0  0  0  0  0  0  0  0  0  0
  -14.2512   24.2426  -47.0752 N   0  0  0  0  0  0  0  0  0  0  0  0
  -14.6671   24.6333  -48.2945 O   0  0  0  0  0  0  0  0  0  0  0  0
  1  2  2  0
  2  3  1  0
  3  4  1  0
  4  5  1  0
  5  6  1  0
  6  7  1  0
  7  8  1  0
  8  9  1  0
  9 10  1  0
 10 11  2  0
 10 12  1  0
 12 13  2  0
 13 14  1  0
 14 15  2  0
 15 16  1  0
 16 17  1  0
 17 18  2  0
 18 19  1  0
 19 20  2  0
 20 21  1  0
 21 22  2  0
 16 23  1  0
 23 24  2  0
 24 25  1  0
 25 26  2  0
 26 27  1  0
 27 28  2  0
 15 29  1  0
 29 30  2  0
  2 31  1  0
 31 32  1  0
 30 12  1  0
 22 17  1  0
 28 23  1  0
M  END
$$$$
