
     RDKit          3D

 27 28  0  0  0  0  0  0  0  0999 V2000
  -12.8482   43.0590  -20.6603 C   0  0  0  0  0  0  0  0  0  0  0  0
  -14.0752   43.0084  -19.7750 C   0  0  0  0  0  0  0  0  0  0  0  0
  -15.2250   43.1451  -20.5960 O   0  0  0  0  0  0  0  0  0  0  0  0
  -15.9243   42.0980  -21.1196 C   0  0  0  0  0  0  0  0  0  0  0  0
  -15.5199   40.9411  -20.7137 O   0  0  0  0  0  0  0  0  0  0  0  0
  -17.0252   42.1138  -22.0410 C   0  0  0  0  0  0  0  0  0  0  0  0
  -16.9756   42.9172  -23.1915 C   0  0  0  0  0  0  0  0  0  0  0  0
  -18.0251   42.9429  -24.0846 C   0  0  0  0  0  0  0  0  0  0  0  0
  -19.1489   42.1788  -23.8675 C   0  0  0  0  0  0  0  0  0  0  0  0
  -19.1959   41.3932  -22.7414 C   0  0  0  0  0  0  0  0  0  0  0  0
  -18.1342   41.3639  -21.8331 C   0  0  0  0  0  0  0  0  0  0  0  0
  -18.2756   40.3421  -20.4356 S   0  0  0  0  0  6  0  0  0  0  0  0
  -19.7195   39.8829  -20.2268 O   0  0  0  0  0  0  0  0  0  0  0  0
  -17.8468   41.0362  -19.1675 O   0  0  0  0  0  0  0  0  0  0  0  0
  -17.2689   38.9640  -20.7072 N   0  0  0  0  0  0  0  0  0  0  0  0
  -17.8057   37.8176  -21.2867 C   0  0  0  0  0  0  0  0  0  0  0  0
  -19.0456   37.7707  -21.5258 O   0  0  0  0  0  0  0  0  0  0  0  0
  -17.0183   36.6682  -21.6334 N   0  0  0  0  0  0  0  0  0  0  0  0
  -17.6347   35.4087  -21.8356 C   0  0  0  0  0  0  0  0  0  0  0  0
  -16.9271   34.2482  -21.7064 N   0  0  0  0  0  0  0  0  0  0  0  0
  -17.4821   33.0407  -21.8913 C   0  0  0  0  0  0  0  0  0  0  0  0
  -16.5734   31.5534  -21.7254 Cl  0  0  0  0  0  0  0  0  0  0  0  0
  -18.8161   32.9403  -22.2252 C   0  0  0  0  0  0  0  0  0  0  0  0
  -19.5472   34.1075  -22.3599 C   0  0  0  0  0  0  0  0  0  0  0  0
  -20.8903   34.0058  -22.6960 O   0  0  0  0  0  0  0  0  0  0  0  0
  -21.6943   33.0874  -21.9752 C   0  0  0  0  0  0  0  0  0  0  0  0
  -18.9331   35.2846  -22.1616 N   0  0  0  0  0  0  0  0  0  0  0  0
  1  2  1  0
  2  3  1  0
  3  4  1  0
  4  5  2  0
  4  6  1  0
  6  7  2  0
  7  8  1  0
  8  9  2  0
  9 10  1  0
 10 11  2  0
 11 12  1  0
 12 13  2  0
 12 14  2  0
 12 15  1  0
 15 16  1  0
 16 17  2  0
 16 18  1  0
 18 19  1  0
 19 20  2  0
 20 21  1  0
 21 22  1  0
 21 23  2  0
 23 24  1  0
 24 25  1  0
 25 26  1  0
 24 27  2  0
 11  6  1  0
 27 19  1  0
M  END
$$$$
