
     RDKit          3D

 28 31  0  0  0  0  0  0  0  0999 V2000
  -17.7499   32.2627  -22.5409 Cl  0  0  0  0  0  0  0  0  0  0  0  0
  -18.7146   33.6952  -22.2081 C   0  0  0  0  0  0  0  0  0  0  0  0
  -20.0864   33.5224  -22.2102 C   0  0  0  0  0  0  0  0  0  0  0  0
  -20.8952   34.6285  -21.9487 C   0  0  0  0  0  0  0  0  0  0  0  0
  -20.2878   35.8391  -21.7007 C   0  0  0  0  0  0  0  0  0  0  0  0
  -18.9260   36.0401  -21.6918 C   0  0  0  0  0  0  0  0  0  0  0  0
  -18.3289   37.3203  -21.4376 N   0  0  0  0  0  0  0  0  0  0  0  0
  -17.7274   37.6842  -20.2940 N   0  0  0  0  0  0  0  0  0  0  0  0
  -17.2996   38.9292  -20.3763 N   0  0  0  0  0  0  0  0  0  0  0  0
  -17.6322   39.3533  -21.5769 N   0  0  0  0  0  0  0  0  0  0  0  0
  -18.2806   38.3598  -22.2658 C   0  0  0  0  0  0  0  0  0  0  0  0
  -18.7646   38.4484  -23.5939 N   0  0  0  0  0  0  0  0  0  0  0  0
  -18.6168   39.6733  -24.3963 C   0  0  0  0  0  0  0  0  0  0  0  0
  -19.4976   39.5136  -25.5529 C   0  0  0  0  0  0  0  0  0  0  0  0
  -20.1865   38.2927  -25.7211 C   0  0  0  0  0  0  0  0  0  0  0  0
  -20.9584   38.0425  -26.8097 C   0  0  0  0  0  0  0  0  0  0  0  0
  -21.0644   39.0182  -27.7783 C   0  0  0  0  0  0  0  0  0  0  0  0
  -20.4128   40.2174  -27.6546 C   0  0  0  0  0  0  0  0  0  0  0  0
  -19.6262   40.4553  -26.5226 C   0  0  0  0  0  0  0  0  0  0  0  0
  -19.0010   41.6794  -26.4580 O   0  0  0  0  0  0  0  0  0  0  0  0
  -19.3568   42.6692  -25.5384 C   0  0  0  0  0  0  0  0  0  0  0  0
  -20.5237   42.5333  -24.7789 C   0  0  0  0  0  0  0  0  0  0  0  0
  -20.8957   43.4963  -23.8758 C   0  0  0  0  0  0  0  0  0  0  0  0
  -20.0848   44.6144  -23.7298 C   0  0  0  0  0  0  0  0  0  0  0  0
  -18.9394   44.7372  -24.4810 C   0  0  0  0  0  0  0  0  0  0  0  0
  -18.6043   43.7699  -25.3611 N   0  0  0  0  0  0  0  0  0  0  0  0
  -18.1292   34.9338  -21.9532 C   0  0  0  0  0  0  0  0  0  0  0  0
  -16.3896   35.0684  -21.9735 Cl  0  0  0  0  0  0  0  0  0  0  0  0
  1  2  1  0
  2  3  2  0
  3  4  1  0
  4  5  2  0
  5  6  1  0
  6  7  1  0
  7  8  1  0
  8  9  2  0
  9 10  1  0
 10 11  2  0
 11 12  1  0
 12 13  1  0
 13 14  1  0
 14 15  2  0
 15 16  1  0
 16 17  2  0
 17 18  1  0
 18 19  2  0
 19 20  1  0
 20 21  1  0
 21 22  2  0
 22 23  1  0
 23 24  2  0
 24 25  1  0
 25 26  2  0
  6 27  2  0
 27 28  1  0
 27  2  1  0
 11  7  1  0
 19 14  1  0
 26 21  1  0
M  END
$$$$
