
     RDKit          3D

 31 34  0  0  0  0  0  0  0  0999 V2000
  -29.9834   22.9341  -27.1963 C   0  0  0  0  0  0  0  0  0  0  0  0
  -29.7368   21.4703  -27.1243 C   0  0  0  0  0  0  0  0  0  0  0  0
  -28.5088   20.9408  -27.4869 C   0  0  0  0  0  0  0  0  0  0  0  0
  -28.2383   19.5967  -27.4348 C   0  0  0  0  0  0  0  0  0  0  0  0
  -26.9455   19.1575  -27.8298 N   0  0  0  0  0  0  0  0  0  0  0  0
  -25.8759   20.0111  -28.1826 C   0  0  0  0  0  0  0  0  0  0  0  0
  -25.9257   21.1916  -27.7216 O   0  0  0  0  0  0  0  0  0  0  0  0
  -24.8130   19.5544  -29.0090 N   0  0  0  0  0  0  0  0  0  0  0  0
  -25.0840   19.0825  -30.3533 C   0  0  0  0  0  0  0  0  0  0  0  0
  -23.9424   19.2046  -31.2869 C   0  0  0  0  0  0  0  0  0  0  0  0
  -24.1709   18.8261  -32.6288 N   0  0  0  0  0  0  0  0  0  0  0  0
  -24.3136   17.4404  -32.8745 C   0  0  0  0  0  0  0  0  0  0  0  0
  -23.3653   16.8791  -33.8745 C   0  0  0  0  0  0  0  0  0  0  0  0
  -22.0367   17.5966  -33.9060 C   0  0  0  0  0  0  0  0  0  0  0  0
  -21.4019   17.3408  -32.6902 O   0  0  0  0  0  0  0  0  0  0  0  0
  -21.1367   17.0675  -34.9937 C   0  0  0  0  0  0  0  0  0  0  0  0
  -21.8077   17.0601  -36.3164 C   0  0  0  0  0  0  0  0  0  0  0  0
  -21.6097   18.1413  -37.1588 C   0  0  0  0  0  0  0  0  0  0  0  0
  -22.1993   18.2017  -38.3968 C   0  0  0  0  0  0  0  0  0  0  0  0
  -23.0091   17.1675  -38.8214 C   0  0  0  0  0  0  0  0  0  0  0  0
  -23.2241   16.0647  -37.9881 C   0  0  0  0  0  0  0  0  0  0  0  0
  -22.6180   16.0334  -36.7503 C   0  0  0  0  0  0  0  0  0  0  0  0
  -22.1933   19.0828  -34.0623 C   0  0  0  0  0  0  0  0  0  0  0  0
  -23.5376   19.5839  -33.6422 C   0  0  0  0  0  0  0  0  0  0  0  0
  -29.1968   18.7313  -27.0144 C   0  0  0  0  0  0  0  0  0  0  0  0
  -28.9259   17.3921  -26.9631 C   0  0  0  0  0  0  0  0  0  0  0  0
  -29.8945   16.5108  -26.5377 C   0  0  0  0  0  0  0  0  0  0  0  0
  -31.1218   17.0157  -26.1727 C   0  0  0  0  0  0  0  0  0  0  0  0
  -31.4066   18.3719  -26.2211 C   0  0  0  0  0  0  0  0  0  0  0  0
  -30.4393   19.2581  -26.6466 C   0  0  0  0  0  0  0  0  0  0  0  0
  -30.6734   20.5977  -26.7106 N   0  0  0  0  0  0  0  0  0  0  0  0
  1  2  1  0
  2  3  2  0
  3  4  1  0
  4  5  1  0
  5  6  1  0
  6  7  2  0
  6  8  1  0
  8  9  1  0
  9 10  1  0
 10 11  1  0
 11 12  1  0
 12 13  1  0
 13 14  1  0
 14 15  1  0
 14 16  1  0
 16 17  1  0
 17 18  2  0
 18 19  1  0
 19 20  2  0
 20 21  1  0
 21 22  2  0
 14 23  1  0
 23 24  1  0
  4 25  2  0
 25 26  1  0
 26 27  2  0
 27 28  1  0
 28 29  2  0
 29 30  1  0
 30 31  2  0
 31  2  1  0
 24 11  1  0
 30 25  1  0
 22 17  1  0
M  END
$$$$
