
     RDKit          3D

 11 11  0  0  0  0  0  0  0  0999 V2000
  -18.4842   40.3382  -21.9450 N   0  0  0  0  0  0  0  0  0  0  0  0
  -18.5241   39.0514  -22.5324 N   0  0  0  0  0  0  0  0  0  0  0  0
  -17.8384   37.9837  -21.9010 C   0  0  0  0  0  0  0  0  0  0  0  0
  -17.1598   38.2718  -20.8699 O   0  0  0  0  0  0  0  0  0  0  0  0
  -17.8928   36.5958  -22.3960 C   0  0  0  0  0  0  0  0  0  0  0  0
  -17.1290   35.6469  -21.7300 C   0  0  0  0  0  0  0  0  0  0  0  0
  -17.1365   34.3302  -22.1444 C   0  0  0  0  0  0  0  0  0  0  0  0
  -17.8954   33.9156  -23.2235 C   0  0  0  0  0  0  0  0  0  0  0  0
  -17.9027   32.5735  -23.6453 O   0  0  0  0  0  0  0  0  0  0  0  0
  -18.6436   34.8628  -23.8705 C   0  0  0  0  0  0  0  0  0  0  0  0
  -18.6401   36.1993  -23.4551 C   0  0  0  0  0  0  0  0  0  0  0  0
  1  2  1  0
  2  3  1  0
  3  4  2  0
  3  5  1  0
  5  6  2  0
  6  7  1  0
  7  8  2  0
  8  9  1  0
  8 10  1  0
 10 11  2  0
 11  5  1  0
M  END
$$$$
