
     RDKit          3D

 29 31  0  0  0  0  0  0  0  0999 V2000
   -9.5130   26.9058  -12.8679 C   0  0  0  0  0  0  0  0  0  0  0  0
   -9.8938   26.4779  -11.4669 C   0  0  0  0  0  0  0  0  0  0  0  0
   -8.6716   25.8740  -10.8438 C   0  0  0  0  0  0  0  0  0  0  0  0
  -10.2987   27.7418  -10.7221 C   0  0  0  0  0  0  0  0  0  0  0  0
  -11.0200   25.5207  -11.5834 C   0  0  0  0  0  0  0  0  0  0  0  0
  -10.9072   24.2161  -11.1424 C   0  0  0  0  0  0  0  0  0  0  0  0
  -12.0014   23.3409  -11.2726 C   0  0  0  0  0  0  0  0  0  0  0  0
  -11.8849   21.9647  -10.8217 C   0  0  0  0  0  0  0  0  0  0  0  0
  -11.8712   21.9001   -9.2915 C   0  0  0  0  0  0  0  0  0  0  0  0
  -13.1658   21.1985  -11.2150 C   0  0  0  0  0  0  0  0  0  0  0  0
  -10.7454   21.1619  -11.3189 C   0  0  0  0  0  0  0  0  0  0  0  0
  -13.1514   23.8099  -11.8344 C   0  0  0  0  0  0  0  0  0  0  0  0
  -14.2745   22.9639  -11.9676 N   0  0  0  0  0  0  0  0  0  0  0  0
  -15.4054   23.1327  -11.1436 C   0  0  0  0  0  0  0  0  0  0  0  0
  -15.3504   24.1416  -10.3520 O   0  0  0  0  0  0  0  0  0  0  0  0
  -16.5899   22.3027  -11.1036 C   0  0  0  0  0  0  0  0  0  0  0  0
  -17.5586   22.5185  -10.1217 C   0  0  0  0  0  0  0  0  0  0  0  0
  -18.6708   21.7786  -10.0426 N   0  0  0  0  0  0  0  0  0  0  0  0
  -18.9263   20.7804  -10.9036 C   0  0  0  0  0  0  0  0  0  0  0  0
  -20.0915   20.0107  -10.8150 C   0  0  0  0  0  0  0  0  0  0  0  0
  -20.3260   18.9966  -11.7091 C   0  0  0  0  0  0  0  0  0  0  0  0
  -19.4363   18.7040  -12.7112 C   0  0  0  0  0  0  0  0  0  0  0  0
  -18.2745   19.4778  -12.7928 C   0  0  0  0  0  0  0  0  0  0  0  0
  -18.0294   20.4986  -11.8997 C   0  0  0  0  0  0  0  0  0  0  0  0
  -16.8640   21.2801  -11.9759 C   0  0  0  0  0  0  0  0  0  0  0  0
  -16.0650   20.9964  -12.8979 O   0  0  0  0  0  0  0  0  0  0  0  0
  -13.2417   25.1377  -12.2746 C   0  0  0  0  0  0  0  0  0  0  0  0
  -12.1772   26.0031  -12.1526 C   0  0  0  0  0  0  0  0  0  0  0  0
  -12.2832   27.3323  -12.5990 O   0  0  0  0  0  0  0  0  0  0  0  0
  1  2  1  0
  2  3  1  0
  2  4  1  0
  2  5  1  0
  5  6  2  0
  6  7  1  0
  7  8  1  0
  8  9  1  0
  8 10  1  0
  8 11  1  0
  7 12  2  0
 12 13  1  0
 13 14  1  0
 14 15  2  0
 14 16  1  0
 16 17  2  0
 17 18  1  0
 18 19  1  0
 19 20  2  0
 20 21  1  0
 21 22  2  0
 22 23  1  0
 23 24  2  0
 24 25  1  0
 25 26  2  0
 12 27  1  0
 27 28  2  0
 28 29  1  0
 28  5  1  0
 25 16  1  0
 24 19  1  0
M  END
$$$$
