
     RDKit          3D

 32 35  0  0  0  0  0  0  0  0999 V2000
  -31.1169   18.2525  -27.0873 O   0  0  0  0  0  0  0  0  0  0  0  0
  -29.8916   18.5008  -27.2205 C   0  0  0  0  0  0  0  0  0  0  0  0
  -28.8931   17.6681  -26.7271 C   0  0  0  0  0  0  0  0  0  0  0  0
  -27.5578   17.9520  -26.8800 C   0  0  0  0  0  0  0  0  0  0  0  0
  -26.5158   17.0749  -26.3604 C   0  0  0  0  0  0  0  0  0  0  0  0
  -26.6833   15.6988  -26.4830 C   0  0  0  0  0  0  0  0  0  0  0  0
  -25.7498   14.7956  -26.0207 C   0  0  0  0  0  0  0  0  0  0  0  0
  -24.5905   15.2332  -25.4064 C   0  0  0  0  0  0  0  0  0  0  0  0
  -23.6539   14.3103  -24.9431 O   0  0  0  0  0  0  0  0  0  0  0  0
  -24.4108   16.5894  -25.2780 C   0  0  0  0  0  0  0  0  0  0  0  0
  -23.2572   17.0462  -24.6663 O   0  0  0  0  0  0  0  0  0  0  0  0
  -25.3644   17.4991  -25.7506 C   0  0  0  0  0  0  0  0  0  0  0  0
  -27.2243   19.0684  -27.5262 O   0  0  0  0  0  0  0  0  0  0  0  0
  -28.1031   19.9023  -28.0192 C   0  0  0  0  0  0  0  0  0  0  0  0
  -27.7015   21.0603  -28.6890 C   0  0  0  0  0  0  0  0  0  0  0  0
  -28.6116   21.9503  -29.2148 C   0  0  0  0  0  0  0  0  0  0  0  0
  -28.2673   23.0975  -29.8788 O   0  0  0  0  0  0  0  0  0  0  0  0
  -27.7361   23.2161  -31.1588 C   0  0  2  0  0  0  0  0  0  0  0  0
  -26.3996   23.6552  -31.0083 O   0  0  0  0  0  0  0  0  0  0  0  0
  -25.8083   23.4437  -32.2742 C   0  0  2  0  0  0  0  0  0  0  0  0
  -24.3444   23.8440  -32.1156 C   0  0  0  0  0  0  0  0  0  0  0  0
  -23.5101   22.7295  -32.1872 O   0  0  0  0  0  0  0  0  0  0  0  0
  -26.4689   24.2866  -33.3283 C   0  0  1  0  0  0  0  0  0  0  0  0
  -27.1089   23.5011  -34.3079 O   0  0  0  0  0  0  0  0  0  0  0  0
  -27.5361   25.1777  -32.7124 C   0  0  2  0  0  0  0  0  0  0  0  0
  -26.8745   26.1353  -31.9467 O   0  0  0  0  0  0  0  0  0  0  0  0
  -28.4654   24.3456  -31.8686 C   0  0  1  0  0  0  0  0  0  0  0  0
  -29.5197   23.8633  -32.6397 O   0  0  0  0  0  0  0  0  0  0  0  0
  -29.9504   21.6589  -29.0576 C   0  0  0  0  0  0  0  0  0  0  0  0
  -30.3759   20.5099  -28.3933 C   0  0  0  0  0  0  0  0  0  0  0  0
  -31.7339   20.2255  -28.2403 O   0  0  0  0  0  0  0  0  0  0  0  0
  -29.4571   19.6391  -27.8785 C   0  0  0  0  0  0  0  0  0  0  0  0
  1  2  2  0
  2  3  1  0
  3  4  2  0
  4  5  1  0
  5  6  2  0
  6  7  1  0
  7  8  2  0
  8  9  1  0
  8 10  1  0
 10 11  1  0
 10 12  2  0
  4 13  1  0
 13 14  1  0
 14 15  2  0
 15 16  1  0
 16 17  1  0
 18 17  1  1
 18 19  1  0
 19 20  1  0
 20 21  1  1
 21 22  1  0
 20 23  1  0
 23 24  1  6
 23 25  1  0
 25 26  1  1
 25 27  1  0
 27 28  1  6
 16 29  2  0
 29 30  1  0
 30 31  1  0
 30 32  2  0
 32  2  1  0
 12  5  1  0
 32 14  1  0
 27 18  1  0
M  END
$$$$
