
     RDKit          3D

 23 26  0  0  0  0  0  0  0  0999 V2000
    1.3683   14.5073  -15.3720 C   0  0  0  0  0  0  0  0  0  0  0  0
    0.8071   15.6966  -16.0251 C   0  0  0  0  0  0  0  0  0  0  0  0
   -0.1995   16.1778  -15.4646 O   0  0  0  0  0  0  0  0  0  0  0  0
    1.2697   16.3777  -17.2245 C   0  0  1  0  0  0  0  0  0  0  0  0
    0.1646   16.6129  -18.2657 C   0  0  0  0  0  0  0  0  0  0  0  0
    0.6520   17.8186  -19.0818 C   0  0  0  0  0  0  0  0  0  0  0  0
    2.0288   18.0875  -18.5471 C   0  0  1  0  0  0  0  0  0  0  0  0
    2.4548   19.5299  -18.6170 C   0  0  2  0  0  0  0  0  0  0  0  0
    2.6755   19.8494  -20.0734 C   0  0  0  0  0  0  0  0  0  0  0  0
    3.5038   21.0689  -20.3166 C   0  0  0  0  0  0  0  0  0  0  0  0
    4.8063   20.8837  -19.5503 C   0  0  1  0  0  0  0  0  0  0  0  0
    5.8887   21.7829  -19.9580 C   0  0  0  0  0  0  0  0  0  0  0  0
    6.3030   22.8345  -19.0043 C   0  0  2  0  0  0  0  0  0  0  0  0
    7.6481   23.1804  -19.2852 O   0  0  0  0  0  0  0  0  0  0  0  0
    6.2400   22.4695  -17.5640 C   0  0  0  0  0  0  0  0  0  0  0  0
    5.6811   21.0885  -17.2937 C   0  0  0  0  0  0  0  0  0  0  0  0
    4.4256   20.9274  -18.0914 C   0  0  1  0  0  0  0  0  0  0  0  0
    3.4872   22.0279  -17.7354 C   0  0  0  0  0  0  0  0  0  0  0  0
    3.7356   19.6090  -17.8235 C   0  0  1  0  0  0  0  0  0  0  0  0
    3.5915   19.2610  -16.3983 C   0  0  0  0  0  0  0  0  0  0  0  0
    3.1150   17.8129  -16.3156 C   0  0  0  0  0  0  0  0  0  0  0  0
    1.8102   17.7611  -17.0673 C   0  0  2  0  0  0  0  0  0  0  0  0
    0.7952   18.6267  -16.4112 C   0  0  0  0  0  0  0  0  0  0  0  0
  1  2  1  0
  2  3  2  0
  4  2  1  1
  4  5  1  0
  5  6  1  0
  7  6  1  6
  7  8  1  0
  8  9  1  6
  9 10  1  0
 11 10  1  6
 11 12  1  0
 12 13  1  0
 13 14  1  6
 13 15  1  0
 15 16  1  0
 16 17  1  0
 17 18  1  6
 17 19  1  0
 19 20  1  1
 20 21  1  0
 21 22  1  0
 22 23  1  1
 22  4  1  0
 22  7  1  0
 19  8  1  0
 17 11  1  0
M  END
$$$$
