
     RDKit          3D

 32 36  0  0  0  0  0  0  0  0999 V2000
  -23.5467   15.5488  -33.6013 C   0  0  0  0  0  0  0  0  0  0  0  0
  -22.4337   16.2710  -32.8747 C   0  0  2  0  0  0  0  0  0  0  0  0
  -21.4289   16.8625  -33.8350 C   0  0  0  0  0  0  0  0  0  0  0  0
  -20.2804   16.8925  -32.9679 O   0  0  0  0  0  0  0  0  0  0  0  0
  -20.4069   15.7542  -32.1438 C   0  0  0  0  0  0  0  0  0  0  0  0
  -19.3649   15.0731  -31.4583 N   0  0  0  0  0  0  0  0  0  0  0  0
  -17.9970   15.1662  -31.7681 C   0  0  0  0  0  0  0  0  0  0  0  0
  -16.9945   14.6941  -30.9732 C   0  0  0  0  0  0  0  0  0  0  0  0
  -15.6590   14.8142  -31.3201 C   0  0  0  0  0  0  0  0  0  0  0  0
  -15.3128   15.4263  -32.5006 C   0  0  0  0  0  0  0  0  0  0  0  0
  -14.0265   15.5578  -32.8661 N   0  0  0  0  0  0  0  0  0  0  0  0
  -13.6510   16.1477  -34.0093 C   0  0  0  0  0  0  0  0  0  0  0  0
  -14.6094   16.6124  -34.7945 N   0  0  0  0  0  0  0  0  0  0  0  0
  -15.9401   16.5361  -34.5286 C   0  0  0  0  0  0  0  0  0  0  0  0
  -16.9034   17.0501  -35.4086 N   0  0  0  0  0  0  0  0  0  0  0  0
  -16.5308   17.5293  -36.6924 C   0  0  0  0  0  0  0  0  0  0  0  0
  -17.3272   17.6063  -37.7884 C   0  0  0  0  0  0  0  0  0  0  0  0
  -16.8292   18.0782  -38.9996 C   0  0  0  0  0  0  0  0  0  0  0  0
  -15.5272   18.4894  -39.1638 C   0  0  0  0  0  0  0  0  0  0  0  0
  -15.0177   18.9612  -40.3621 O   0  0  0  0  0  0  0  0  0  0  0  0
  -15.8263   19.1298  -41.5146 C   0  0  0  0  0  0  0  0  0  0  0  0
  -14.9638   19.7077  -42.5628 C   0  0  0  0  0  0  0  0  0  0  0  0
  -15.1016   20.1857  -43.7592 N   0  0  0  0  0  0  0  0  0  0  0  0
  -14.2133   20.6373  -44.5099 C   0  0  0  0  0  0  0  0  0  0  0  0
  -12.8434   20.6572  -44.0473 C   0  0  0  0  0  0  0  0  0  0  0  0
  -13.1305   19.9193  -42.3863 S   0  0  0  0  0  0  0  0  0  0  0  0
  -14.7180   18.4131  -38.0544 C   0  0  0  0  0  0  0  0  0  0  0  0
  -13.0450   18.9338  -38.2325 Cl  0  0  0  0  0  0  0  0  0  0  0  0
  -15.2007   17.9495  -36.8590 C   0  0  0  0  0  0  0  0  0  0  0  0
  -16.2927   15.9183  -33.3352 C   0  0  0  0  0  0  0  0  0  0  0  0
  -17.6027   15.7805  -32.9574 C   0  0  0  0  0  0  0  0  0  0  0  0
  -21.6321   15.3818  -32.0774 N   0  0  0  0  0  0  0  0  0  0  0  0
  2  1  1  6
  2  3  1  0
  3  4  1  0
  4  5  1  0
  5  6  1  0
  6  7  1  0
  7  8  2  0
  8  9  1  0
  9 10  2  0
 10 11  1  0
 11 12  2  0
 12 13  1  0
 13 14  2  0
 14 15  1  0
 15 16  1  0
 16 17  2  0
 17 18  1  0
 18 19  2  0
 19 20  1  0
 20 21  1  0
 21 22  1  0
 22 23  2  0
 23 24  1  0
 24 25  2  0
 25 26  1  0
 19 27  1  0
 27 28  1  0
 27 29  2  0
 14 30  1  0
 30 31  2  0
  5 32  2  0
 32  2  1  0
 31  7  1  0
 30 10  1  0
 29 16  1  0
 26 22  1  0
M  END
$$$$
