
     RDKit          3D

 33 35  0  0  0  0  0  0  0  0999 V2000
  -16.5223   21.0859   -9.4522 C   0  0  0  0  0  0  0  0  0  0  0  0
  -15.3102   20.1895   -9.5982 C   0  0  0  0  0  0  0  0  0  0  0  0
  -15.5096   19.0310   -8.6115 C   0  0  0  0  0  0  0  0  0  0  0  0
  -14.1168   20.9867   -9.2291 C   0  0  0  0  0  0  0  0  0  0  0  0
  -13.6975   20.9111   -8.0481 O   0  0  0  0  0  0  0  0  0  0  0  0
  -13.4366   21.8239  -10.1496 N   0  0  0  0  0  0  0  0  0  0  0  0
  -13.8485   23.1684  -10.4495 C   0  0  0  0  0  0  0  0  0  0  0  0
  -14.4123   23.3006  -11.8369 C   0  0  0  0  0  0  0  0  0  0  0  0
  -13.7640   22.3596  -12.6542 F   0  0  0  0  0  0  0  0  0  0  0  0
  -15.7553   23.1173  -11.8859 F   0  0  0  0  0  0  0  0  0  0  0  0
  -14.0450   24.6574  -12.4174 C   0  0  0  0  0  0  0  0  0  0  0  0
  -14.6997   24.7737  -13.6382 F   0  0  0  0  0  0  0  0  0  0  0  0
  -14.5610   25.6079  -11.5430 F   0  0  0  0  0  0  0  0  0  0  0  0
  -12.6956   24.8328  -12.5185 F   0  0  0  0  0  0  0  0  0  0  0  0
  -15.2052   19.5938  -10.9345 C   0  0  0  0  0  0  0  0  0  0  0  0
  -14.1102   19.1338  -11.4086 O   0  0  0  0  0  0  0  0  0  0  0  0
  -16.3265   19.4754  -11.8282 N   0  0  0  0  0  0  0  0  0  0  0  0
  -17.6866   19.5678  -11.3847 C   0  0  2  0  0  0  0  0  0  0  0  0
  -18.2248   18.2083  -11.1426 C   0  0  0  0  0  0  0  0  0  0  0  0
  -18.0264   17.7907   -9.9823 O   0  0  0  0  0  0  0  0  0  0  0  0
  -18.9269   17.2726  -11.9669 N   0  0  0  0  0  0  0  0  0  0  0  0
  -19.1366   17.4935  -13.3647 C   0  0  0  0  0  0  0  0  0  0  0  0
  -19.1810   16.3160  -14.0762 C   0  0  0  0  0  0  0  0  0  0  0  0
  -19.3375   16.3457  -15.4494 C   0  0  0  0  0  0  0  0  0  0  0  0
  -19.4473   17.5640  -16.0942 C   0  0  0  0  0  0  0  0  0  0  0  0
  -19.4056   18.7785  -15.3973 C   0  0  0  0  0  0  0  0  0  0  0  0
  -19.2518   18.7055  -14.0369 C   0  0  0  0  0  0  0  0  0  0  0  0
  -19.2572   20.0113  -13.4351 C   0  0  0  0  0  0  0  0  0  0  0  0
  -20.0380   20.8884  -14.1252 C   0  0  0  0  0  0  0  0  0  0  0  0
  -20.1358   22.1986  -13.6812 C   0  0  0  0  0  0  0  0  0  0  0  0
  -19.4357   22.5837  -12.5421 C   0  0  0  0  0  0  0  0  0  0  0  0
  -18.6438   21.6535  -11.8562 C   0  0  0  0  0  0  0  0  0  0  0  0
  -18.5441   20.3596  -12.2905 C   0  0  0  0  0  0  0  0  0  0  0  0
  1  2  1  0
  2  3  1  0
  2  4  1  0
  4  5  2  0
  4  6  1  0
  6  7  1  0
  7  8  1  0
  8  9  1  0
  8 10  1  0
  8 11  1  0
 11 12  1  0
 11 13  1  0
 11 14  1  0
  2 15  1  0
 15 16  2  0
 15 17  1  0
 18 17  1  6
 18 19  1  0
 19 20  2  0
 19 21  1  0
 21 22  1  0
 22 23  2  0
 23 24  1  0
 24 25  2  0
 25 26  1  0
 26 27  2  0
 27 28  1  0
 28 29  2  0
 29 30  1  0
 30 31  2  0
 31 32  1  0
 32 33  2  0
 33 18  1  0
 27 22  1  0
 33 28  1  0
M  END
$$$$
