
     RDKit          3D

 33 37  0  0  0  0  0  0  0  0999 V2000
  -15.8213   15.8909  -33.0537 C   0  0  0  0  0  0  0  0  0  0  0  0
  -16.4688   17.1084  -32.4673 C   0  0  0  0  0  0  0  0  0  0  0  0
  -17.7954   17.4761  -32.9136 C   0  0  0  0  0  0  0  0  0  0  0  0
  -18.2260   17.3820  -34.3164 C   0  0  0  0  0  0  0  0  0  0  0  0
  -17.4296   17.2237  -35.3331 C   0  0  0  0  0  0  0  0  0  0  0  0
  -17.8403   17.1174  -36.7551 C   0  0  0  0  0  0  0  0  0  0  0  0
  -19.3290   16.8777  -36.8168 C   0  0  2  0  0  0  0  0  0  0  0  0
  -19.8611   16.7264  -38.1973 C   0  0  1  0  0  0  0  0  0  0  0  0
  -19.3987   17.7525  -39.1883 C   0  0  0  0  0  0  0  0  0  0  0  0
  -19.3599   15.3785  -38.7169 C   0  0  0  0  0  0  0  0  0  0  0  0
  -20.4729   14.3734  -38.8541 C   0  0  0  0  0  0  0  0  0  0  0  0
  -21.4838   14.9137  -39.8164 C   0  0  0  0  0  0  0  0  0  0  0  0
  -20.9279   15.0827  -41.0776 O   0  0  0  0  0  0  0  0  0  0  0  0
  -22.0850   16.2045  -39.3147 C   0  0  0  0  0  0  0  0  0  0  0  0
  -23.5011   15.8367  -38.8273 C   0  0  0  0  0  0  0  0  0  0  0  0
  -22.2857   17.2242  -40.3940 C   0  0  0  0  0  0  0  0  0  0  0  0
  -21.3509   16.6608  -38.1130 C   0  0  2  0  0  0  0  0  0  0  0  0
  -21.9155   17.9477  -37.5383 C   0  0  0  0  0  0  0  0  0  0  0  0
  -21.4977   17.9460  -36.0747 C   0  0  0  0  0  0  0  0  0  0  0  0
  -20.0019   17.8892  -35.9322 C   0  0  2  0  0  0  0  0  0  0  0  0
  -19.5117   19.2868  -36.2008 C   0  0  0  0  0  0  0  0  0  0  0  0
  -19.7036   17.4776  -34.5006 C   0  0  1  0  0  0  0  0  0  0  0  0
  -20.1932   16.0479  -34.2525 C   0  0  0  0  0  0  0  0  0  0  0  0
  -20.4029   18.3693  -33.5330 C   0  0  0  0  0  0  0  0  0  0  0  0
  -19.7460   18.7024  -32.2561 C   0  0  0  0  0  0  0  0  0  0  0  0
  -18.2599   18.7944  -32.3781 C   0  0  2  0  0  0  0  0  0  0  0  0
  -17.8935   19.9815  -33.1452 C   0  0  0  0  0  0  0  0  0  0  0  0
  -17.5431   20.0773  -34.3226 O   0  0  0  0  0  0  0  0  0  0  0  0
  -17.9477   21.2013  -32.4358 O   0  0  0  0  0  0  0  0  0  0  0  0
  -17.5774   18.9528  -31.0246 C   0  0  0  0  0  0  0  0  0  0  0  0
  -16.1291   19.2657  -31.3367 C   0  0  0  0  0  0  0  0  0  0  0  0
  -15.4861   18.2704  -32.2772 C   0  0  1  0  0  0  0  0  0  0  0  0
  -14.2606   17.7176  -31.5278 C   0  0  0  0  0  0  0  0  0  0  0  0
  1  2  1  0
  2  3  1  0
  3  4  1  0
  4  5  2  0
  5  6  1  0
  7  6  1  6
  7  8  1  0
  8  9  1  6
  8 10  1  0
 10 11  1  0
 11 12  1  0
 12 13  1  0
 12 14  1  0
 14 15  1  0
 14 16  1  0
 14 17  1  0
 17 18  1  6
 18 19  1  0
 19 20  1  0
 20 21  1  6
 20 22  1  0
 22 23  1  6
 22 24  1  0
 24 25  1  0
 25 26  1  0
 26 27  1  6
 27 28  2  0
 27 29  1  0
 26 30  1  0
 30 31  1  0
 31 32  1  0
 32 33  1  1
 32  2  1  0
 26  3  1  0
 22  4  1  0
 20  7  1  0
 17  8  1  0
M  END
$$$$
