
     RDKit          3D

 30 31  0  0  0  0  0  0  0  0999 V2000
  -25.0541   12.0117  -33.1434 C   0  0  0  0  0  0  0  0  0  0  0  0
  -24.6548   13.2072  -32.4911 O   0  0  0  0  0  0  0  0  0  0  0  0
  -23.3389   13.6751  -32.5815 C   0  0  0  0  0  0  0  0  0  0  0  0
  -22.3794   12.9914  -33.3118 C   0  0  0  0  0  0  0  0  0  0  0  0
  -21.0892   13.4715  -33.3848 C   0  0  0  0  0  0  0  0  0  0  0  0
  -20.6894   14.6399  -32.7454 C   0  0  0  0  0  0  0  0  0  0  0  0
  -19.3092   15.0848  -32.8602 C   0  0  2  0  0  0  0  0  0  0  0  0
  -18.4874   15.1694  -31.2478 S   0  0  0  0  0  0  0  0  0  0  0  0
  -16.7360   15.2444  -31.5242 C   0  0  0  0  0  0  0  0  0  0  0  0
  -16.0995   14.7762  -30.3861 C   0  0  0  0  0  0  0  0  0  0  0  0
  -14.7332   14.7206  -30.2998 C   0  0  0  0  0  0  0  0  0  0  0  0
  -13.9916   15.1438  -31.3757 C   0  0  0  0  0  0  0  0  0  0  0  0
  -14.6507   15.6102  -32.5083 C   0  0  0  0  0  0  0  0  0  0  0  0
  -16.0236   15.6756  -32.6203 C   0  0  0  0  0  0  0  0  0  0  0  0
  -16.4458   16.1851  -33.8783 N   0  0  0  0  0  0  0  0  0  0  0  0
  -15.4290   16.4291  -34.8476 C   0  0  0  0  0  0  0  0  0  0  0  0
  -14.8453   17.8182  -34.7970 C   0  0  0  0  0  0  0  0  0  0  0  0
  -13.8265   17.9835  -35.7999 N   0  0  0  0  0  0  0  0  0  0  0  0
  -13.2526   19.3142  -35.7905 C   0  0  0  0  0  0  0  0  0  0  0  0
  -12.7481   17.0519  -35.7222 C   0  0  0  0  0  0  0  0  0  0  0  0
  -17.8142   16.4752  -34.2564 C   0  0  0  0  0  0  0  0  0  0  0  0
  -17.8869   16.8464  -35.4593 O   0  0  0  0  0  0  0  0  0  0  0  0
  -19.0921   16.4164  -33.5145 C   0  0  2  0  0  0  0  0  0  0  0  0
  -19.1477   17.4802  -32.5641 O   0  0  0  0  0  0  0  0  0  0  0  0
  -20.0814   18.4966  -32.6507 C   0  0  0  0  0  0  0  0  0  0  0  0
  -20.1762   19.6199  -31.6873 C   0  0  0  0  0  0  0  0  0  0  0  0
  -20.9186   18.4922  -33.6001 O   0  0  0  0  0  0  0  0  0  0  0  0
  -21.6437   15.3005  -32.0324 C   0  0  0  0  0  0  0  0  0  0  0  0
  -22.9595   14.8344  -31.9422 C   0  0  0  0  0  0  0  0  0  0  0  0
  -18.6187   15.6823  -33.1193 Cl  0  0  0  0  0  0  0  0  0  0  0  0
  1  2  1  0
  2  3  1  0
  3  4  2  0
  4  5  1  0
  5  6  2  0
  7  6  1  1
  7  8  1  0
  8  9  1  0
  9 10  2  0
 10 11  1  0
 11 12  2  0
 12 13  1  0
 13 14  2  0
 14 15  1  0
 15 16  1  0
 16 17  1  0
 17 18  1  0
 18 19  1  0
 18 20  1  0
 15 21  1  0
 21 22  2  0
 21 23  1  0
 23 24  1  1
 24 25  1  0
 25 26  1  0
 25 27  2  0
  6 28  1  0
 28 29  2  0
 29  3  1  0
 23  7  1  0
 14  9  1  0
M  END
$$$$
