
     RDKit          3D

 20 22  0  0  0  0  0  0  0  0999 V2000
  -15.8413   33.2602  -20.4629 C   0  0  0  0  0  0  0  0  0  0  0  0
  -16.5666   33.5925  -22.0850 S   0  0  0  0  0  0  0  0  0  0  0  0
  -18.3249   33.1122  -22.1319 C   0  0  0  0  0  0  0  0  0  0  0  0
  -19.1207   34.3536  -21.9561 C   0  0  1  0  0  0  0  0  0  0  0  0
  -18.1379   35.5266  -21.6997 C   0  0  0  0  0  0  0  0  0  0  0  0
  -18.8814   36.6837  -22.0638 N   0  0  0  0  0  0  0  0  0  0  0  0
  -18.1571   37.7415  -22.6949 C   0  0  0  0  0  0  0  0  0  0  0  0
  -18.4598   39.0945  -22.1956 C   0  0  0  0  0  0  0  0  0  0  0  0
  -19.4152   39.9297  -22.7772 C   0  0  0  0  0  0  0  0  0  0  0  0
  -19.4259   41.0650  -22.0653 N   0  0  0  0  0  0  0  0  0  0  0  0
  -18.5396   41.0031  -21.0710 C   0  0  0  0  0  0  0  0  0  0  0  0
  -18.1608   41.8873  -20.0684 C   0  0  0  0  0  0  0  0  0  0  0  0
  -18.7902   43.1691  -19.9838 N   0  0  0  0  0  0  0  0  0  0  0  0
  -17.2152   41.5437  -19.1885 N   0  0  0  0  0  0  0  0  0  0  0  0
  -16.6293   40.3534  -19.2650 C   0  0  0  0  0  0  0  0  0  0  0  0
  -16.9777   39.4845  -20.2223 N   0  0  0  0  0  0  0  0  0  0  0  0
  -17.9160   39.7636  -21.1345 C   0  0  0  0  0  0  0  0  0  0  0  0
  -20.0086   36.3082  -22.8679 C   0  0  0  0  0  0  0  0  0  0  0  0
  -19.7384   34.8717  -23.2336 C   0  0  2  0  0  0  0  0  0  0  0  0
  -20.9795   34.2770  -23.4817 O   0  0  0  0  0  0  0  0  0  0  0  0
  1  2  1  0
  2  3  1  0
  4  3  1  6
  4  5  1  0
  5  6  1  0
  6  7  1  0
  7  8  1  0
  8  9  2  0
  9 10  1  0
 10 11  1  0
 11 12  2  0
 12 13  1  0
 12 14  1  0
 14 15  2  0
 15 16  1  0
 16 17  2  0
  6 18  1  0
 18 19  1  0
 19 20  1  1
 19  4  1  0
 17  8  1  0
 17 11  1  0
M  END
$$$$
