
     RDKit          3D

 24 25  0  0  0  0  0  0  0  0999 V2000
  -15.5352   44.6223  -29.0136 C   0  0  0  0  0  0  0  0  0  0  0  0
  -16.2412   44.2677  -27.7452 C   0  0  0  0  0  0  0  0  0  0  0  0
  -16.4122   43.0559  -27.4173 O   0  0  0  0  0  0  0  0  0  0  0  0
  -16.7285   45.2846  -26.8930 N   0  0  0  0  0  0  0  0  0  0  0  0
  -17.3197   44.8411  -25.6400 C   0  0  0  0  0  0  0  0  0  0  0  0
  -17.7819   45.2295  -24.6894 N   0  0  0  0  0  0  0  0  0  0  0  0
  -18.2771   44.5780  -23.6286 C   0  0  0  0  0  0  0  0  0  0  0  0
  -18.8755   45.2737  -22.4215 C   0  0  0  0  0  0  0  0  0  0  0  0
  -18.2110   43.2379  -23.7126 C   0  0  0  0  0  0  0  0  0  0  0  0
  -18.5966   42.0909  -22.8748 C   0  0  0  0  0  0  0  0  0  0  0  0
  -19.6339   42.1207  -22.0001 C   0  0  0  0  0  0  0  0  0  0  0  0
  -19.9575   41.0048  -21.2432 C   0  0  0  0  0  0  0  0  0  0  0  0
  -19.2322   39.8682  -21.3737 C   0  0  0  0  0  0  0  0  0  0  0  0
  -19.6482   38.4754  -20.4183 Cl  0  0  0  0  0  0  0  0  0  0  0  0
  -18.1561   39.8050  -22.2662 C   0  0  0  0  0  0  0  0  0  0  0  0
  -17.3286   38.2878  -22.3759 S   0  0  0  0  0  6  0  0  0  0  0  0
  -16.2089   38.3779  -23.4095 O   0  0  0  0  0  0  0  0  0  0  0  0
  -16.6692   37.9937  -21.0297 O   0  0  0  0  0  0  0  0  0  0  0  0
  -18.3053   36.9465  -22.7469 N   0  0  0  0  0  0  0  0  0  0  0  0
  -18.7874   36.9260  -24.0825 C   0  0  0  0  0  0  0  0  0  0  0  0
  -19.1891   35.4938  -24.4417 C   0  0  0  0  0  0  0  0  0  0  0  0
  -20.5752   35.4048  -24.5269 O   0  0  0  0  0  0  0  0  0  0  0  0
  -17.8581   40.9013  -22.9942 C   0  0  0  0  0  0  0  0  0  0  0  0
  -17.4188   42.9799  -25.3587 S   0  0  0  0  0  0  0  0  0  0  0  0
  1  2  1  0
  2  3  2  0
  2  4  1  0
  4  5  1  0
  5  6  2  0
  6  7  1  0
  7  8  1  0
  7  9  2  0
  9 10  1  0
 10 11  2  0
 11 12  1  0
 12 13  2  0
 13 14  1  0
 13 15  1  0
 15 16  1  0
 16 17  2  0
 16 18  2  0
 16 19  1  0
 19 20  1  0
 20 21  1  0
 21 22  1  0
 15 23  2  0
  9 24  1  0
 24  5  1  0
 23 10  1  0
M  END
$$$$
