
     RDKit          3D

 33 36  0  0  0  0  0  0  0  0999 V2000
   -1.6275   13.8802  -15.6826 Br  0  0  0  0  0  0  0  0  0  0  0  0
    3.0156   16.1055  -18.1030 N   0  0  0  0  0  0  0  0  0  0  0  0
    2.0481   15.2140  -17.5718 C   0  0  0  0  0  0  0  0  0  0  0  0
    2.3917   14.0375  -17.3381 O   0  0  0  0  0  0  0  0  0  0  0  0
    0.6312   15.6451  -17.2856 C   0  0  0  0  0  0  0  0  0  0  0  0
    0.0795   16.0420  -18.5859 C   0  0  0  0  0  0  0  0  0  0  0  0
   -0.7017   15.1987  -19.3281 C   0  0  0  0  0  0  0  0  0  0  0  0
   -1.2326   15.5767  -20.5600 C   0  0  0  0  0  0  0  0  0  0  0  0
   -0.9713   16.8216  -21.0487 C   0  0  0  0  0  0  0  0  0  0  0  0
   -0.1944   17.6847  -20.3300 C   0  0  0  0  0  0  0  0  0  0  0  0
    0.3360   17.2964  -19.0907 C   0  0  0  0  0  0  0  0  0  0  0  0
    0.7474   16.8052  -16.3619 C   0  0  0  0  0  0  0  0  0  0  0  0
   -0.2712   17.7224  -16.3267 C   0  0  0  0  0  0  0  0  0  0  0  0
   -0.1840   18.8154  -15.4562 C   0  0  0  0  0  0  0  0  0  0  0  0
    0.9110   18.9899  -14.6297 C   0  0  0  0  0  0  0  0  0  0  0  0
    1.9263   18.0642  -14.6739 C   0  0  0  0  0  0  0  0  0  0  0  0
    1.8302   16.9948  -15.5319 C   0  0  0  0  0  0  0  0  0  0  0  0
   -0.0875   14.5143  -16.6502 C   0  0  2  0  0  0  0  0  0  0  0  0
   -1.5135   14.7467  -16.2879 C   0  0  0  0  0  0  0  0  0  0  0  0
   -1.7500   13.5963  -15.2766 C   0  0  0  0  0  0  0  0  0  0  0  0
   -0.5074   13.3202  -14.6664 N   0  0  0  0  0  0  0  0  0  0  0  0
   -0.0241   12.0025  -14.6201 C   0  0  0  0  0  0  0  0  0  0  0  0
   -0.7539   11.1054  -13.6968 C   0  0  0  0  0  0  0  0  0  0  0  0
   -2.1839   10.9395  -14.0158 C   0  0  0  0  0  0  0  0  0  0  0  0
   -2.6013   10.0061  -14.9743 C   0  0  0  0  0  0  0  0  0  0  0  0
   -3.9427    9.8320  -15.2221 C   0  0  0  0  0  0  0  0  0  0  0  0
   -4.9328   10.5339  -14.5718 C   0  0  0  0  0  0  0  0  0  0  0  0
   -4.5372   11.4582  -13.6241 C   0  0  0  0  0  0  0  0  0  0  0  0
   -3.1969   11.6374  -13.3717 C   0  0  0  0  0  0  0  0  0  0  0  0
   -5.7795   12.0689  -13.0837 C   0  0  0  0  0  0  0  0  0  0  0  0
   -6.7975   10.9480  -13.3406 C   0  0  0  0  0  0  0  0  0  0  0  0
   -6.3405   10.5393  -14.6417 O   0  0  0  0  0  0  0  0  0  0  0  0
    0.4781   14.2558  -15.2406 C   0  0  0  0  0  0  0  0  0  0  0  0
  2  3  1  0
  3  4  2  0
  3  5  1  0
  5  6  1  0
  6  7  2  0
  7  8  1  0
  8  9  2  0
  9 10  1  0
 10 11  2  0
  5 12  1  0
 12 13  2  0
 13 14  1  0
 14 15  2  0
 15 16  1  0
 16 17  2  0
 18  5  1  1
 18 19  1  0
 19 20  1  0
 20 21  1  0
 21 22  1  0
 22 23  1  0
 23 24  1  0
 24 25  2  0
 25 26  1  0
 26 27  2  0
 27 28  1  0
 28 29  2  0
 28 30  1  0
 30 31  1  0
 31 32  1  0
 21 33  1  0
 11  6  1  0
 17 12  1  0
 33 18  1  0
 29 24  1  0
 32 27  1  0
M  END
$$$$
