
     RDKit          3D

 34 37  0  0  0  0  0  0  0  0999 V2000
  -25.0627   21.5995  -30.6594 O   0  0  0  0  0  0  0  0  0  0  0  0
  -25.0730   20.4251  -30.2275 C   0  0  0  0  0  0  0  0  0  0  0  0
  -24.4673   19.4398  -30.9533 O   0  0  0  0  0  0  0  0  0  0  0  0
  -25.7467   20.1424  -28.9382 C   0  0  0  0  0  0  0  0  0  0  0  0
  -26.8573   20.9501  -28.7390 O   0  0  0  0  0  0  0  0  0  0  0  0
  -27.9680   20.6628  -27.9585 C   0  0  0  0  0  0  0  0  0  0  0  0
  -29.1760   21.2816  -28.0685 C   0  0  0  0  0  0  0  0  0  0  0  0
  -30.2013   20.9022  -27.2280 C   0  0  0  0  0  0  0  0  0  0  0  0
  -30.0186   19.9125  -26.2864 C   0  0  0  0  0  0  0  0  0  0  0  0
  -28.7885   19.2587  -26.1502 C   0  0  0  0  0  0  0  0  0  0  0  0
  -28.6793   18.2102  -25.1367 C   0  0  0  0  0  0  0  0  0  0  0  0
  -28.8695   16.8808  -25.5122 N   0  0  0  0  0  0  0  0  0  0  0  0
  -29.9499   16.5567  -26.3728 C   0  0  0  0  0  0  0  0  0  0  0  0
  -31.2104   16.1780  -25.6872 C   0  0  0  0  0  0  0  0  0  0  0  0
  -31.3276   16.0566  -24.3248 C   0  0  0  0  0  0  0  0  0  0  0  0
  -32.5309   15.7101  -23.7664 C   0  0  0  0  0  0  0  0  0  0  0  0
  -33.6509   15.4736  -24.5325 C   0  0  0  0  0  0  0  0  0  0  0  0
  -34.8849   15.1170  -23.9317 N   0  0  0  0  0  0  0  0  0  0  0  0
  -35.1095   15.0541  -22.6128 C   0  0  0  0  0  0  0  0  0  0  0  0
  -36.4164   14.6760  -22.3897 C   0  0  0  0  0  0  0  0  0  0  0  0
  -36.9666   14.5146  -23.6418 C   0  0  0  0  0  0  0  0  0  0  0  0
  -36.0059   14.7914  -24.5237 N   0  0  0  0  0  0  0  0  0  0  0  0
  -33.5169   15.6002  -25.9065 C   0  0  0  0  0  0  0  0  0  0  0  0
  -32.3174   15.9475  -26.4882 C   0  0  0  0  0  0  0  0  0  0  0  0
  -27.7259   15.7098  -25.2047 S   0  0  0  0  0  6  0  0  0  0  0  0
  -28.3892   14.3609  -25.1049 O   0  0  0  0  0  0  0  0  0  0  0  0
  -27.1651   15.9674  -23.8033 O   0  0  0  0  0  0  0  0  0  0  0  0
  -26.4176   15.6634  -26.3442 C   0  0  0  0  0  0  0  0  0  0  0  0
  -26.2473   14.5888  -27.1876 C   0  0  0  0  0  0  0  0  0  0  0  0
  -25.2146   14.5554  -28.1179 C   0  0  0  0  0  0  0  0  0  0  0  0
  -24.3446   15.6209  -28.1955 C   0  0  0  0  0  0  0  0  0  0  0  0
  -24.5178   16.6603  -27.3722 N   0  0  0  0  0  0  0  0  0  0  0  0
  -25.5271   16.7051  -26.4553 C   0  0  0  0  0  0  0  0  0  0  0  0
  -27.7905   19.6564  -26.9980 C   0  0  0  0  0  0  0  0  0  0  0  0
  1  2  2  0
  2  3  1  0
  2  4  1  0
  4  5  1  0
  5  6  1  0
  6  7  2  0
  7  8  1  0
  8  9  2  0
  9 10  1  0
 10 11  1  0
 11 12  1  0
 12 13  1  0
 13 14  1  0
 14 15  2  0
 15 16  1  0
 16 17  2  0
 17 18  1  0
 18 19  1  0
 19 20  2  0
 20 21  1  0
 21 22  2  0
 17 23  1  0
 23 24  2  0
 12 25  1  0
 25 26  2  0
 25 27  2  0
 25 28  1  0
 28 29  2  0
 29 30  1  0
 30 31  2  0
 31 32  1  0
 32 33  2  0
 10 34  2  0
 34  6  1  0
 24 14  1  0
 33 28  1  0
 22 18  1  0
M  END
$$$$
