
     RDKit          3D

 24 24  0  0  0  0  0  0  0  0999 V2000
  -15.8409   45.1413  -20.4522 C   0  0  0  0  0  0  0  0  0  0  0  0
  -16.2383   43.9007  -19.8758 O   0  0  0  0  0  0  0  0  0  0  0  0
  -16.9362   43.0041  -20.6754 C   0  0  0  0  0  0  0  0  0  0  0  0
  -17.2440   43.2739  -21.9674 N   0  0  0  0  0  0  0  0  0  0  0  0
  -17.9194   42.4063  -22.7412 C   0  0  0  0  0  0  0  0  0  0  0  0
  -18.2445   42.7365  -24.1700 C   0  0  0  0  0  0  0  0  0  0  0  0
  -18.2862   41.2433  -22.1842 N   0  0  0  0  0  0  0  0  0  0  0  0
  -18.0154   40.9099  -20.9116 C   0  0  0  0  0  0  0  0  0  0  0  0
  -18.4071   39.6807  -20.3349 N   0  0  0  0  0  0  0  0  0  0  0  0
  -19.1193   38.7278  -21.0969 C   0  0  0  0  0  0  0  0  0  0  0  0
  -19.3853   39.0158  -22.2913 O   0  0  0  0  0  0  0  0  0  0  0  0
  -19.5512   37.4747  -20.6052 N   0  0  0  0  0  2  0  0  0  0  0  0
  -18.5246   36.1006  -20.7830 S   0  0  0  0  0  6  0  0  0  0  0  0
  -17.2176   36.3312  -20.0878 O   0  0  0  0  0  0  0  0  0  0  0  0
  -19.2083   34.9031  -20.1400 O   0  0  0  0  0  0  0  0  0  0  0  0
  -18.2155   35.7411  -22.4574 C   0  0  0  0  0  0  0  0  0  0  0  0
  -16.9178   35.7504  -22.9518 C   0  0  0  0  0  0  0  0  0  0  0  0
  -16.6745   35.4657  -24.2776 C   0  0  0  0  0  0  0  0  0  0  0  0
  -17.7417   35.1741  -25.0935 C   0  0  0  0  0  0  0  0  0  0  0  0
  -19.0399   35.1566  -24.6344 C   0  0  0  0  0  0  0  0  0  0  0  0
  -19.2742   35.4471  -23.2872 C   0  0  0  0  0  0  0  0  0  0  0  0
  -20.8854   35.4505  -22.6093 Cl  0  0  0  0  0  0  0  0  0  0  0  0
  -17.3351   41.8184  -20.1812 N   0  0  0  0  0  0  0  0  0  0  0  0
  -17.8146   39.4332  -22.2636 K   0  0  0  0  0 15  0  0  0  0  0  0
  1  2  1  0
  2  3  1  0
  3  4  2  0
  4  5  1  0
  5  6  1  0
  5  7  2  0
  7  8  1  0
  8  9  1  0
  9 10  1  0
 10 11  2  0
 10 12  1  0
 12 13  1  0
 13 14  2  0
 13 15  2  0
 13 16  1  0
 16 17  2  0
 17 18  1  0
 18 19  2  0
 19 20  1  0
 20 21  2  0
 21 22  1  0
  8 23  2  0
 23  3  1  0
 21 16  1  0
M  CHG  2  12  -1  24   1
M  END
$$$$
