
     RDKit          3D

 28 31  0  0  0  0  0  0  0  0999 V2000
  -16.8244   33.4218  -21.5316 N   0  0  0  0  0  0  0  0  0  0  0  0
  -18.0404   34.0823  -21.3462 N   0  0  0  0  0  0  0  0  0  0  0  0
  -18.7855   34.4677  -22.4897 C   0  0  0  0  0  0  0  0  0  0  0  0
  -18.3021   34.3688  -23.6340 O   0  0  0  0  0  0  0  0  0  0  0  0
  -20.1679   35.0032  -22.3150 C   0  0  0  0  0  0  0  0  0  0  0  0
  -20.4785   36.4047  -23.4076 S   0  0  0  0  0  0  0  0  0  0  0  0
  -19.5676   37.8192  -22.8642 C   0  0  0  0  0  0  0  0  0  0  0  0
  -18.9919   37.9543  -21.6555 N   0  0  0  0  0  0  0  0  0  0  0  0
  -18.3247   39.0513  -21.3278 C   0  0  0  0  0  0  0  0  0  0  0  0
  -17.4393   39.5653  -19.8548 S   0  0  0  0  0  0  0  0  0  0  0  0
  -16.9030   41.1931  -20.4481 C   0  0  0  0  0  0  0  0  0  0  0  0
  -17.4579   41.1975  -21.7408 C   0  0  0  0  0  0  0  0  0  0  0  0
  -17.2353   42.4713  -22.5151 C   0  0  0  0  0  0  0  0  0  0  0  0
  -16.9408   42.3550  -23.8445 C   0  0  0  0  0  0  0  0  0  0  0  0
  -16.7043   43.5127  -24.6013 C   0  0  0  0  0  0  0  0  0  0  0  0
  -16.7639   44.7695  -24.0268 C   0  0  0  0  0  0  0  0  0  0  0  0
  -17.0613   44.8530  -22.6917 C   0  0  0  0  0  0  0  0  0  0  0  0
  -17.2978   43.7042  -21.9302 C   0  0  0  0  0  0  0  0  0  0  0  0
  -18.1499   40.1418  -22.1589 C   0  0  0  0  0  0  0  0  0  0  0  0
  -18.7629   39.9786  -23.4298 C   0  0  0  0  0  0  0  0  0  0  0  0
  -18.6981   40.8767  -24.3170 O   0  0  0  0  0  0  0  0  0  0  0  0
  -19.4266   38.8563  -23.7190 N   0  0  0  0  0  0  0  0  0  0  0  0
  -20.0226   38.7751  -25.0364 C   0  0  0  0  0  0  0  0  0  0  0  0
  -21.2848   39.2792  -25.2642 C   0  0  0  0  0  0  0  0  0  0  0  0
  -21.8854   39.2255  -26.5062 C   0  0  0  0  0  0  0  0  0  0  0  0
  -21.1836   38.6467  -27.5308 C   0  0  0  0  0  0  0  0  0  0  0  0
  -19.9262   38.1406  -27.3167 C   0  0  0  0  0  0  0  0  0  0  0  0
  -19.3394   38.1983  -26.0836 C   0  0  0  0  0  0  0  0  0  0  0  0
  1  2  1  0
  2  3  1  0
  3  4  2  0
  3  5  1  0
  5  6  1  0
  6  7  1  0
  7  8  2  0
  8  9  1  0
  9 10  1  0
 10 11  1  0
 11 12  2  0
 12 13  1  0
 13 14  2  0
 14 15  1  0
 15 16  2  0
 16 17  1  0
 17 18  2  0
 12 19  1  0
 19 20  1  0
 20 21  2  0
 20 22  1  0
 22 23  1  0
 23 24  2  0
 24 25  1  0
 25 26  2  0
 26 27  1  0
 27 28  2  0
 22  7  1  0
 28 23  1  0
 19  9  2  0
 18 13  1  0
M  END
$$$$
