
     RDKit          3D

 14 16  0  0  0  0  0  0  0  0999 V2000
    1.5863    7.5487  -41.3728 O   0  0  0  0  0  0  0  0  0  0  0  0
    0.4453    7.1437  -41.0352 C   0  0  0  0  0  0  0  0  0  0  0  0
   -0.5468    7.0767  -41.9384 N   0  0  0  0  0  0  0  0  0  0  0  0
   -1.7826    6.6380  -41.5725 C   0  0  0  0  0  0  0  0  0  0  0  0
   -3.2837    6.4349  -42.5120 S   0  0  0  0  0  0  0  0  0  0  0  0
   -4.2939    5.8272  -41.1676 C   0  0  0  0  0  0  0  0  0  0  0  0
   -3.4012    5.8285  -40.1078 C   0  0  0  0  0  0  0  0  0  0  0  0
   -2.1491    6.2376  -40.3297 C   0  0  0  0  0  0  0  0  0  0  0  0
   -1.0955    6.3102  -39.3768 C   0  0  0  0  0  0  0  0  0  0  0  0
   -1.2899    5.9422  -38.0650 C   0  0  0  0  0  0  0  0  0  0  0  0
   -0.2645    6.0192  -37.1643 C   0  0  0  0  0  0  0  0  0  0  0  0
    1.0043    6.4648  -37.5195 C   0  0  0  0  0  0  0  0  0  0  0  0
    1.1840    6.8276  -38.8273 C   0  0  0  0  0  0  0  0  0  0  0  0
    0.1364    6.7480  -39.7435 C   0  0  0  0  0  0  0  0  0  0  0  0
  1  2  2  0
  2  3  1  0
  3  4  1  0
  4  5  1  0
  5  6  1  0
  6  7  2  0
  7  8  1  0
  8  9  1  0
  9 10  2  0
 10 11  1  0
 11 12  2  0
 12 13  1  0
 13 14  2  0
 14  2  1  0
  8  4  2  0
 14  9  1  0
M  END
$$$$
