
     RDKit          3D

 30 32  0  0  0  0  0  0  0  0999 V2000
  -16.2661   17.2194  -43.3429 C   0  0  0  0  0  0  0  0  0  0  0  0
  -15.0664   18.1791  -43.3789 C   0  0  0  0  0  0  0  0  0  0  0  0
  -13.8659   17.5338  -42.9772 C   0  0  0  0  0  0  0  0  0  0  0  0
  -12.7647   18.4437  -42.9593 C   0  0  0  0  0  0  0  0  0  0  0  0
  -11.4444   17.6567  -42.4629 C   0  0  0  0  0  0  0  0  0  0  0  0
  -11.5825   16.3957  -42.7581 C   0  0  0  0  0  0  0  0  0  0  0  0
  -11.7121   15.0126  -43.0733 N   0  0  0  0  0  0  0  0  0  0  0  0
  -11.4873   17.7548  -40.9375 C   0  0  0  0  0  0  0  0  0  0  0  0
  -10.4733   18.5280  -40.2626 C   0  0  0  0  0  0  0  0  0  0  0  0
  -10.6493   18.6005  -38.9353 C   0  0  0  0  0  0  0  0  0  0  0  0
  -11.5865   18.0864  -38.2020 C   0  0  0  0  0  0  0  0  0  0  0  0
  -11.6567   18.2305  -36.4229 Cl  0  0  0  0  0  0  0  0  0  0  0  0
  -12.5989   17.3269  -38.8338 C   0  0  0  0  0  0  0  0  0  0  0  0
  -12.4971   17.1859  -40.2467 C   0  0  0  0  0  0  0  0  0  0  0  0
  -12.7922   19.5790  -43.2382 C   0  0  0  0  0  0  0  0  0  0  0  0
  -11.3233   20.6968  -43.3275 Cl  0  0  0  0  0  0  0  0  0  0  0  0
  -13.9848   20.3419  -43.6634 C   0  0  0  0  0  0  0  0  0  0  0  0
  -15.1673   19.4498  -43.6931 C   0  0  0  0  0  0  0  0  0  0  0  0
  -16.3500   20.2585  -44.0572 N   0  0  0  0  0  0  0  0  0  0  0  0
  -17.0524   20.6085  -42.8604 C   0  0  0  0  0  0  0  0  0  0  0  0
  -16.6770   20.3956  -41.7117 O   0  0  0  0  0  0  0  0  0  0  0  0
  -18.4318   21.2641  -42.9466 C   0  0  0  0  0  0  0  0  0  0  0  0
  -18.9637   21.7578  -41.7710 C   0  0  0  0  0  0  0  0  0  0  0  0
  -19.9190   22.6303  -41.7792 C   0  0  0  0  0  0  0  0  0  0  0  0
  -20.9412   23.2279  -39.9689 I   0  0  0  0  0  0  0  0  0  0  0  0
  -20.4851   23.1479  -43.0321 C   0  0  0  0  0  0  0  0  0  0  0  0
  -19.8743   22.5649  -44.1895 C   0  0  0  0  0  0  0  0  0  0  0  0
  -20.4781   23.3902  -46.0421 I   0  0  0  0  0  0  0  0  0  0  0  0
  -18.8427   21.6087  -44.1587 C   0  0  0  0  0  0  0  0  0  0  0  0
  -18.3551   21.1061  -45.3795 O   0  0  0  0  0  0  0  0  0  0  0  0
  1  2  1  0
  2  3  2  0
  3  4  1  0
  4  5  1  0
  5  6  1  0
  6  7  3  0
  5  8  1  0
  8  9  2  0
  9 10  1  0
 10 11  2  0
 11 12  1  0
 11 13  1  0
 13 14  2  0
  4 15  2  0
 15 16  1  0
 15 17  1  0
 17 18  2  0
 18 19  1  0
 19 20  1  0
 20 21  2  0
 20 22  1  0
 22 23  2  0
 23 24  1  0
 24 25  1  0
 24 26  2  0
 26 27  1  0
 27 28  1  0
 27 29  2  0
 29 30  1  0
 18  2  1  0
 29 22  1  0
 14  8  1  0
M  END
$$$$
