
     RDKit          3D

 36 40  0  0  0  0  0  0  0  0999 V2000
  -19.6064   50.8652  -20.7869 C   0  0  0  0  0  0  0  0  0  0  0  0
  -18.6923   49.9354  -20.1041 C   0  0  0  0  0  0  0  0  0  0  0  0
  -18.4604   50.1012  -18.8839 O   0  0  0  0  0  0  0  0  0  0  0  0
  -18.0615   48.8566  -20.7731 N   0  0  0  0  0  0  0  0  0  0  0  0
  -18.2445   48.6541  -22.2025 C   0  0  0  0  0  0  0  0  0  0  0  0
  -18.5113   47.1953  -22.5105 C   0  0  0  0  0  0  0  0  0  0  0  0
  -17.6175   46.3475  -21.7283 N   0  0  0  0  0  0  0  0  0  0  0  0
  -17.8025   44.9451  -21.6652 C   0  0  0  0  0  0  0  0  0  0  0  0
  -18.5710   44.3380  -22.6698 C   0  0  0  0  0  0  0  0  0  0  0  0
  -18.7891   42.9859  -22.6678 C   0  0  0  0  0  0  0  0  0  0  0  0
  -18.2652   42.1375  -21.6760 C   0  0  0  0  0  0  0  0  0  0  0  0
  -18.5418   40.7949  -21.7597 O   0  0  0  0  0  0  0  0  0  0  0  0
  -17.7060   39.7171  -21.9223 C   0  0  0  0  0  0  0  0  0  0  0  0
  -18.1780   38.3920  -21.4342 C   0  0  2  0  0  0  0  0  0  0  0  0
  -17.0462   37.3780  -21.6957 C   0  0  0  0  0  0  0  0  0  0  0  0
  -17.1468   37.2293  -23.0727 O   0  0  0  0  0  0  0  0  0  0  0  0
  -18.5669   37.0326  -23.1843 C   0  0  1  0  0  0  0  0  0  0  0  0
  -18.8118   37.4307  -24.6374 C   0  0  0  0  0  0  0  0  0  0  0  0
  -20.1330   37.5920  -25.0888 N   0  0  0  0  0  0  0  0  0  0  0  0
  -20.8970   38.7192  -24.9896 C   0  0  0  0  0  0  0  0  0  0  0  0
  -22.0841   38.4597  -25.6104 C   0  0  0  0  0  0  0  0  0  0  0  0
  -22.0217   37.2027  -26.0675 N   0  0  0  0  0  0  0  0  0  0  0  0
  -20.8433   36.6489  -25.7639 C   0  0  0  0  0  0  0  0  0  0  0  0
  -18.7540   35.5964  -22.9236 C   0  0  0  0  0  0  0  0  0  0  0  0
  -19.1412   34.7250  -23.9569 C   0  0  0  0  0  0  0  0  0  0  0  0
  -19.4330   33.3966  -23.7276 C   0  0  0  0  0  0  0  0  0  0  0  0
  -19.3599   32.8589  -22.4744 C   0  0  0  0  0  0  0  0  0  0  0  0
  -19.7444   31.1788  -22.2622 Cl  0  0  0  0  0  0  0  0  0  0  0  0
  -18.9814   33.6817  -21.4282 C   0  0  0  0  0  0  0  0  0  0  0  0
  -18.6885   35.0196  -21.6787 C   0  0  0  0  0  0  0  0  0  0  0  0
  -18.0891   35.9337  -20.2920 Cl  0  0  0  0  0  0  0  0  0  0  0  0
  -19.1414   37.9083  -22.3378 O   0  0  0  0  0  0  0  0  0  0  0  0
  -17.5162   42.7426  -20.6990 C   0  0  0  0  0  0  0  0  0  0  0  0
  -17.2961   44.1229  -20.7054 C   0  0  0  0  0  0  0  0  0  0  0  0
  -16.5396   46.9888  -21.0232 C   0  0  0  0  0  0  0  0  0  0  0  0
  -17.2173   47.9350  -20.0171 C   0  0  0  0  0  0  0  0  0  0  0  0
  1  2  1  0
  2  3  2  0
  2  4  1  0
  4  5  1  0
  5  6  1  0
  6  7  1  0
  7  8  1  0
  8  9  2  0
  9 10  1  0
 10 11  2  0
 11 12  1  0
 12 13  1  0
 14 13  1  6
 14 15  1  0
 15 16  1  0
 16 17  1  0
 17 18  1  6
 18 19  1  0
 19 20  1  0
 20 21  2  0
 21 22  1  0
 22 23  2  0
 17 24  1  0
 24 25  2  0
 25 26  1  0
 26 27  2  0
 27 28  1  0
 27 29  1  0
 29 30  2  0
 30 31  1  0
 17 32  1  0
 11 33  1  0
 33 34  2  0
  7 35  1  0
 35 36  1  0
 36  4  1  0
 34  8  1  0
 32 14  1  0
 23 19  1  0
 30 24  1  0
M  END
$$$$
