
     RDKit          3D

 20 22  0  0  0  0  0  0  0  0999 V2000
  -16.7527   36.6552  -22.1225 O   0  0  0  0  0  0  0  0  0  0  0  0
  -17.9601   36.3115  -22.1625 C   0  0  0  0  0  0  0  0  0  0  0  0
  -18.9475   37.3063  -22.2546 N   0  0  0  0  0  0  0  0  0  0  0  0
  -18.7363   38.6312  -22.6514 C   0  0  0  0  0  0  0  0  0  0  0  0
  -19.5527   39.2499  -23.5631 C   0  0  0  0  0  0  0  0  0  0  0  0
  -19.2926   40.5735  -23.9207 C   0  0  0  0  0  0  0  0  0  0  0  0
  -18.2338   41.2906  -23.3858 C   0  0  0  0  0  0  0  0  0  0  0  0
  -17.9789   42.6337  -23.7558 N   0  0  0  0  0  0  0  0  0  0  0  0
  -16.9083   43.4499  -23.2579 C   0  0  0  0  0  0  0  0  0  0  0  0
  -17.3613   44.8816  -23.4594 C   0  0  0  0  0  0  0  0  0  0  0  0
  -18.2190   44.7702  -24.7074 C   0  0  0  0  0  0  0  0  0  0  0  0
  -18.7844   43.3815  -24.7095 C   0  0  0  0  0  0  0  0  0  0  0  0
  -17.4321   40.6570  -22.4793 C   0  0  0  0  0  0  0  0  0  0  0  0
  -17.6852   39.3386  -22.1184 C   0  0  0  0  0  0  0  0  0  0  0  0
  -18.3534   34.9062  -22.1153 C   0  0  0  0  0  0  0  0  0  0  0  0
  -17.5136   33.8162  -21.8557 C   0  0  0  0  0  0  0  0  0  0  0  0
  -18.2747   32.6719  -21.9032 C   0  0  0  0  0  0  0  0  0  0  0  0
  -19.5507   33.0900  -22.1886 C   0  0  0  0  0  0  0  0  0  0  0  0
  -21.0369   31.8872  -22.3721 Br  0  0  0  0  0  0  0  0  0  0  0  0
  -19.5371   34.3791  -22.2995 O   0  0  0  0  0  0  0  0  0  0  0  0
  1  2  2  0
  2  3  1  0
  3  4  1  0
  4  5  2  0
  5  6  1  0
  6  7  2  0
  7  8  1  0
  8  9  1  0
  9 10  1  0
 10 11  1  0
 11 12  1  0
  7 13  1  0
 13 14  2  0
  2 15  1  0
 15 16  2  0
 16 17  1  0
 17 18  2  0
 18 19  1  0
 18 20  1  0
 14  4  1  0
 20 15  1  0
 12  8  1  0
M  END
$$$$
