
     RDKit          3D

 55 60  0  0  0  0  0  0  0  0999 V2000
  -22.8362   24.2505  -46.3978 C   0  0  0  0  0  0  0  0  0  0  0  0
  -21.9402   23.2438  -47.0102 C   0  0  0  0  0  0  0  0  0  0  0  0
  -21.0423   23.6007  -48.1187 C   0  0  0  0  0  0  0  0  0  0  0  0
  -21.9703   22.0002  -46.5357 C   0  0  0  0  0  0  0  0  0  0  0  0
  -21.3185   21.5815  -45.3100 C   0  0  0  0  0  0  0  0  0  0  0  0
  -20.1531   22.3645  -44.8832 C   0  0  0  0  0  0  0  0  0  0  0  0
  -19.4427   22.0537  -43.6277 C   0  0  2  0  0  0  0  0  0  0  0  0
  -18.2308   23.0030  -43.6069 C   0  0  0  0  0  0  0  0  0  0  0  0
  -18.8523   20.7699  -43.8115 O   0  0  0  0  0  0  0  0  0  0  0  0
  -20.1444   22.0100  -42.3611 C   0  0  1  0  0  0  0  0  0  0  0  0
  -21.4854   21.1657  -42.6647 C   0  0  0  0  0  0  0  0  0  0  0  0
  -22.0935   21.0610  -41.2986 C   0  0  0  0  0  0  0  0  0  0  0  0
  -21.0002   21.2844  -40.3068 C   0  0  2  0  0  0  0  0  0  0  0  0
  -21.2269   22.6683  -39.7455 C   0  0  0  0  0  0  0  0  0  0  0  0
  -19.7717   21.1915  -41.2051 C   0  0  2  0  0  0  0  0  0  0  0  0
  -18.5876   21.4095  -40.3943 C   0  0  2  0  0  0  0  0  0  0  0  0
  -17.3529   21.4858  -41.0364 O   0  0  0  0  0  0  0  0  0  0  0  0
  -18.5115   20.1485  -39.4649 C   0  0  0  0  0  0  0  0  0  0  0  0
  -19.6511   20.3109  -38.5057 C   0  0  2  0  0  0  0  0  0  0  0  0
  -19.4945   19.4992  -37.2528 C   0  0  1  0  0  0  0  0  0  0  0  0
  -19.0027   18.1095  -37.5107 C   0  0  0  0  0  0  0  0  0  0  0  0
  -18.3598   20.1792  -36.4697 C   0  0  0  0  0  0  0  0  0  0  0  0
  -18.3907   20.0329  -35.0108 C   0  0  0  0  0  0  0  0  0  0  0  0
  -19.3867   19.1618  -34.3474 C   0  0  2  0  0  0  0  0  0  0  0  0
  -18.7403   17.9322  -34.0973 O   0  0  0  0  0  0  0  0  0  0  0  0
  -18.1591   17.9111  -32.8367 C   0  0  2  0  0  0  0  0  0  0  0  0
  -17.3458   19.0340  -32.6383 O   0  0  0  0  0  0  0  0  0  0  0  0
  -16.7851   18.9083  -31.3698 C   0  0  2  0  0  0  0  0  0  0  0  0
  -16.3326   20.2598  -30.8761 C   0  0  0  0  0  0  0  0  0  0  0  0
  -17.4600   21.0865  -30.8705 O   0  0  0  0  0  0  0  0  0  0  0  0
  -15.6316   17.9278  -31.4798 C   0  0  1  0  0  0  0  0  0  0  0  0
  -15.6398   17.1433  -30.3338 O   0  0  0  0  0  0  0  0  0  0  0  0
  -15.8506   17.0268  -32.6735 C   0  0  2  0  0  0  0  0  0  0  0  0
  -15.5355   17.7244  -33.8580 O   0  0  0  0  0  0  0  0  0  0  0  0
  -17.3429   16.6609  -32.6824 C   0  0  1  0  0  0  0  0  0  0  0  0
  -17.5491   16.0161  -31.4458 O   0  0  0  0  0  0  0  0  0  0  0  0
  -17.1271   14.6911  -31.5031 C   0  0  2  0  0  0  0  0  0  0  0  0
  -17.9832   13.8778  -32.1893 O   0  0  0  0  0  0  0  0  0  0  0  0
  -19.2786   13.8364  -31.7623 C   0  0  2  0  0  0  0  0  0  0  0  0
  -20.1577   14.5626  -32.7487 C   0  0  0  0  0  0  0  0  0  0  0  0
  -21.0078   13.5860  -33.3115 O   0  0  0  0  0  0  0  0  0  0  0  0
  -19.4730   14.3476  -30.3596 C   0  0  1  0  0  0  0  0  0  0  0  0
  -20.6010   13.7198  -29.8353 O   0  0  0  0  0  0  0  0  0  0  0  0
  -18.3060   13.9961  -29.4670 C   0  0  2  0  0  0  0  0  0  0  0  0
  -18.3846   14.8061  -28.3356 O   0  0  0  0  0  0  0  0  0  0  0  0
  -16.9734   14.1745  -30.0943 C   0  0  1  0  0  0  0  0  0  0  0  0
  -16.3094   12.9216  -30.1018 O   0  0  0  0  0  0  0  0  0  0  0  0
  -20.6391   18.8954  -35.0894 C   0  0  0  0  0  0  0  0  0  0  0  0
  -21.7751   19.5476  -34.2655 C   0  0  0  0  0  0  0  0  0  0  0  0
  -21.0008   17.4557  -35.1990 C   0  0  0  0  0  0  0  0  0  0  0  0
  -20.6864   19.6429  -36.4031 C   0  0  2  0  0  0  0  0  0  0  0  0
  -22.0183   19.5363  -37.0606 C   0  0  0  0  0  0  0  0  0  0  0  0
  -22.0115   20.6454  -38.1331 C   0  0  0  0  0  0  0  0  0  0  0  0
  -20.9746   20.2480  -39.1983 C   0  0  1  0  0  0  0  0  0  0  0  0
  -21.3981   18.9530  -39.7590 C   0  0  0  0  0  0  0  0  0  0  0  0
  1  2  1  0
  2  3  1  0
  2  4  2  3
  4  5  1  0
  5  6  1  0
  6  7  1  0
  7  8  1  1
  7  9  1  0
  7 10  1  0
 10 11  1  6
 11 12  1  0
 12 13  1  0
 13 14  1  1
 13 15  1  0
 15 16  1  1
 16 17  1  6
 16 18  1  0
 19 18  1  6
 19 20  1  0
 20 21  1  6
 20 22  1  0
 22 23  1  0
 23 24  1  0
 24 25  1  6
 26 25  1  6
 26 27  1  0
 27 28  1  0
 28 29  1  6
 29 30  1  0
 28 31  1  0
 31 32  1  1
 31 33  1  0
 33 34  1  6
 33 35  1  0
 35 36  1  1
 37 36  1  1
 37 38  1  0
 38 39  1  0
 39 40  1  6
 40 41  1  0
 39 42  1  0
 42 43  1  1
 42 44  1  0
 44 45  1  1
 44 46  1  0
 46 47  1  6
 24 48  1  0
 48 49  1  0
 48 50  1  0
 48 51  1  0
 51 52  1  6
 52 53  1  0
 53 54  1  0
 54 55  1  6
 15 10  1  0
 54 19  1  0
 54 13  1  0
 51 20  1  0
 35 26  1  0
 46 37  1  0
M  END
$$$$
