
     RDKit          3D

 34 37  0  0  0  0  0  0  0  0999 V2000
  -17.7139   43.8095  -27.2467 C   0  0  0  0  0  0  0  0  0  0  0  0
  -17.9991   44.1961  -26.0289 C   0  0  0  0  0  0  0  0  0  0  0  0
  -17.8756   43.2760  -24.9088 C   0  0  0  0  0  0  0  0  0  0  0  0
  -17.4760   42.1070  -25.1298 O   0  0  0  0  0  0  0  0  0  0  0  0
  -18.1932   43.6627  -23.5712 N   0  0  0  0  0  0  0  0  0  0  0  0
  -17.9384   42.7558  -22.5130 C   0  0  0  0  0  0  0  0  0  0  0  0
  -18.1577   41.4036  -22.7050 C   0  0  0  0  0  0  0  0  0  0  0  0
  -17.9220   40.4770  -21.7146 C   0  0  0  0  0  0  0  0  0  0  0  0
  -18.1413   39.1060  -21.9188 C   0  0  0  0  0  0  0  0  0  0  0  0
  -18.6352   38.7543  -23.1918 N   0  0  0  0  0  0  0  0  0  0  0  0
  -19.0072   37.3861  -23.4170 C   0  0  0  0  0  0  0  0  0  0  0  0
  -19.5366   37.0105  -24.6368 C   0  0  0  0  0  0  0  0  0  0  0  0
  -19.8919   35.6951  -24.9035 C   0  0  0  0  0  0  0  0  0  0  0  0
  -19.6966   34.7794  -23.9084 C   0  0  0  0  0  0  0  0  0  0  0  0
  -20.0362   33.4755  -24.1506 F   0  0  0  0  0  0  0  0  0  0  0  0
  -19.1641   35.1218  -22.6625 C   0  0  0  0  0  0  0  0  0  0  0  0
  -18.9280   33.9120  -21.4053 Cl  0  0  0  0  0  0  0  0  0  0  0  0
  -18.8282   36.4290  -22.4419 C   0  0  0  0  0  0  0  0  0  0  0  0
  -17.8902   38.2531  -20.9251 N   0  0  0  0  0  0  0  0  0  0  0  0
  -17.4251   38.7142  -19.7240 C   0  0  0  0  0  0  0  0  0  0  0  0
  -17.2264   40.0123  -19.5585 N   0  0  0  0  0  0  0  0  0  0  0  0
  -17.4533   40.9366  -20.5046 C   0  0  0  0  0  0  0  0  0  0  0  0
  -17.2359   42.2815  -20.3158 C   0  0  0  0  0  0  0  0  0  0  0  0
  -17.4704   43.2308  -21.3099 C   0  0  0  0  0  0  0  0  0  0  0  0
  -17.2438   44.5847  -21.0980 O   0  0  0  0  0  0  0  0  0  0  0  0
  -18.3436   45.4308  -20.9378 C   0  0  0  0  0  0  0  0  0  0  0  0
  -17.9722   46.7767  -20.3620 C   0  0  0  0  0  0  0  0  0  0  0  0
  -19.1835   47.6672  -20.2556 C   0  0  0  0  0  0  0  0  0  0  0  0
  -18.9676   48.8743  -19.5735 N   0  0  0  0  0  0  0  0  0  0  0  0
  -20.0807   49.7130  -19.3467 C   0  0  0  0  0  0  0  0  0  0  0  0
  -19.8280   51.1616  -19.1525 C   0  0  0  0  0  0  0  0  0  0  0  0
  -18.6243   51.6524  -19.5702 O   0  0  0  0  0  0  0  0  0  0  0  0
  -18.0159   50.8606  -20.5081 C   0  0  0  0  0  0  0  0  0  0  0  0
  -17.7252   49.5285  -19.8008 C   0  0  0  0  0  0  0  0  0  0  0  0
  1  2  2  0
  2  3  1  0
  3  4  2  0
  3  5  1  0
  5  6  1  0
  6  7  2  0
  7  8  1  0
  8  9  2  0
  9 10  1  0
 10 11  1  0
 11 12  2  0
 12 13  1  0
 13 14  2  0
 14 15  1  0
 14 16  1  0
 16 17  1  0
 16 18  2  0
  9 19  1  0
 19 20  2  0
 20 21  1  0
 21 22  2  0
 22 23  1  0
 23 24  2  0
 24 25  1  0
 25 26  1  0
 26 27  1  0
 27 28  1  0
 28 29  1  0
 29 30  1  0
 30 31  1  0
 31 32  1  0
 32 33  1  0
 33 34  1  0
 24  6  1  0
 34 29  1  0
 22  8  1  0
 18 11  1  0
M  END
$$$$
