
     RDKit          3D

 21 22  0  0  0  0  0  0  0  0999 V2000
  -18.0828   37.0011  -24.8034 C   0  0  0  0  0  0  0  0  0  0  0  0
  -19.1788   36.8492  -23.8081 C   0  0  0  0  0  0  0  0  0  0  0  0
  -20.0899   38.0506  -23.8688 C   0  0  0  0  0  0  0  0  0  0  0  0
  -20.0394   35.6722  -24.3235 C   0  0  0  0  0  0  0  0  0  0  0  0
  -18.7087   36.5147  -22.4172 C   0  0  0  0  0  0  0  0  0  0  0  0
  -19.8942   36.6030  -21.6255 O   0  0  0  0  0  0  0  0  0  0  0  0
  -17.8136   37.6015  -21.9251 C   0  0  0  0  0  0  0  0  0  0  0  0
  -18.4914   38.8683  -21.5310 C   0  0  0  0  0  0  0  0  0  0  0  0
  -17.4511   39.8714  -21.1870 C   0  0  0  0  0  0  0  0  0  0  0  0
  -16.5696   40.3827  -22.1017 C   0  0  0  0  0  0  0  0  0  0  0  0
  -15.6021   41.3180  -21.7693 C   0  0  0  0  0  0  0  0  0  0  0  0
  -15.5493   41.7281  -20.4686 C   0  0  0  0  0  0  0  0  0  0  0  0
  -14.3114   42.9213  -20.0557 Cl  0  0  0  0  0  0  0  0  0  0  0  0
  -16.4148   41.2412  -19.5165 C   0  0  0  0  0  0  0  0  0  0  0  0
  -17.3721   40.3052  -19.8829 C   0  0  0  0  0  0  0  0  0  0  0  0
  -18.2364   35.1331  -22.2162 C   0  0  0  0  0  0  0  0  0  0  0  0
  -19.1828   34.1060  -22.0158 N   0  0  0  0  0  0  0  0  0  0  0  0
  -19.6391   33.2116  -22.8954 C   0  0  0  0  0  0  0  0  0  0  0  0
  -20.5430   32.3843  -22.2839 N   0  0  0  0  0  0  0  0  0  0  0  0
  -20.6133   32.8078  -21.0196 C   0  0  0  0  0  0  0  0  0  0  0  0
  -19.7874   33.8483  -20.8694 N   0  0  0  0  0  0  0  0  0  0  0  0
  1  2  1  0
  2  3  1  0
  2  4  1  0
  2  5  1  0
  5  6  1  0
  5  7  1  0
  7  8  1  0
  8  9  1  0
  9 10  2  0
 10 11  1  0
 11 12  2  0
 12 13  1  0
 12 14  1  0
 14 15  2  0
  5 16  1  0
 16 17  1  0
 17 18  1  0
 18 19  2  0
 19 20  1  0
 20 21  2  0
 15  9  1  0
 21 17  1  0
M  END
$$$$
