
     RDKit          3D

 43 44  0  0  0  0  0  0  0  0999 V2000
  -15.9286   16.8837  -34.1251 N   0  0  0  0  0  0  0  0  0  0  0  0
  -15.1647   17.0222  -35.1484 C   0  0  0  0  0  0  0  0  0  0  0  0
  -13.8998   17.6946  -35.0445 N   0  0  0  0  0  0  0  0  0  0  0  0
  -15.5973   16.4947  -36.3911 N   0  0  0  0  0  0  0  0  0  0  0  0
  -16.3482   17.2599  -37.3395 C   0  0  0  0  0  0  0  0  0  0  0  0
  -16.5824   16.4632  -38.6069 C   0  0  0  0  0  0  0  0  0  0  0  0
  -17.9887   16.6224  -39.0759 C   0  0  0  0  0  0  0  0  0  0  0  0
  -18.0982   17.8953  -39.9343 C   0  0  2  0  0  0  0  0  0  0  0  0
  -16.9154   18.7013  -39.7420 N   0  0  0  0  0  0  0  0  0  0  0  0
  -16.1492   19.3284  -40.7410 C   0  0  0  0  0  0  0  0  0  0  0  0
  -14.9375   19.5851  -40.5311 O   0  0  0  0  0  0  0  0  0  0  0  0
  -16.6593   19.7396  -42.0959 C   0  0  2  0  0  0  0  0  0  0  0  0
  -16.1664   18.6343  -43.0383 C   0  0  0  0  0  0  0  0  0  0  0  0
  -14.7073   18.7109  -43.3310 C   0  0  0  0  0  0  0  0  0  0  0  0
  -13.9371   17.8177  -42.3474 C   0  0  0  0  0  0  0  0  0  0  0  0
  -12.4629   17.9487  -42.6722 C   0  0  0  0  0  0  0  0  0  0  0  0
  -11.6685   17.0657  -41.8724 N   0  0  0  0  0  0  0  0  0  0  0  0
  -16.0022   20.9954  -42.3941 N   0  0  0  0  0  0  0  0  0  0  0  0
  -16.5461   22.2823  -42.4393 C   0  0  0  0  0  0  0  0  0  0  0  0
  -16.1327   23.0938  -41.5282 O   0  0  0  0  0  0  0  0  0  0  0  0
  -17.5195   22.8784  -43.3616 C   0  0  1  0  0  0  0  0  0  0  0  0
  -18.1544   21.9413  -44.3419 C   0  0  0  0  0  0  0  0  0  0  0  0
  -19.1385   21.1162  -43.5859 C   0  0  0  0  0  0  0  0  0  0  0  0
  -18.6853   20.2106  -42.6434 C   0  0  0  0  0  0  0  0  0  0  0  0
  -19.5557   19.4256  -41.9135 C   0  0  0  0  0  0  0  0  0  0  0  0
  -20.9167   19.5133  -42.0955 C   0  0  0  0  0  0  0  0  0  0  0  0
  -21.3917   20.4066  -43.0271 C   0  0  0  0  0  0  0  0  0  0  0  0
  -20.5027   21.1870  -43.7509 C   0  0  0  0  0  0  0  0  0  0  0  0
  -18.5333   23.6593  -42.7255 N   0  0  0  0  0  0  0  0  0  0  0  0
  -18.8886   23.6778  -41.3607 C   0  0  0  0  0  0  0  0  0  0  0  0
  -18.9588   24.7987  -40.7468 O   0  0  0  0  0  0  0  0  0  0  0  0
  -19.2018   22.4834  -40.5345 C   0  0  2  0  0  0  0  0  0  0  0  0
  -20.4716   21.8069  -41.0731 C   0  0  0  0  0  0  0  0  0  0  0  0
  -20.1377   20.5506  -41.7665 C   0  0  0  0  0  0  0  0  0  0  0  0
  -18.9489   20.1986  -41.8981 O   0  0  0  0  0  0  0  0  0  0  0  0
  -21.1435   19.7581  -42.2732 O   0  0  0  0  0  0  0  0  0  0  0  0
  -19.4776   22.8281  -39.1719 N   0  0  0  0  0  0  0  0  0  0  0  0
  -19.5118   21.8301  -38.1798 C   0  0  0  0  0  0  0  0  0  0  0  0
  -20.2893   21.9302  -37.1763 O   0  0  0  0  0  0  0  0  0  0  0  0
  -18.6665   20.6016  -38.2128 C   0  0  0  0  0  0  0  0  0  0  0  0
  -19.4676   19.4199  -38.4305 N   0  0  0  0  0  0  0  0  0  0  0  0
  -19.3553   18.5400  -39.5211 C   0  0  0  0  0  0  0  0  0  0  0  0
  -20.4097   18.2758  -40.2040 O   0  0  0  0  0  0  0  0  0  0  0  0
  1  2  2  0
  2  3  1  0
  2  4  1  0
  4  5  1  0
  5  6  1  0
  6  7  1  0
  8  7  1  1
  8  9  1  0
  9 10  1  0
 10 11  2  0
 10 12  1  0
 12 13  1  6
 13 14  1  0
 14 15  1  0
 15 16  1  0
 16 17  1  0
 12 18  1  0
 18 19  1  0
 19 20  2  0
 19 21  1  0
 21 22  1  1
 22 23  1  0
 23 24  2  0
 24 25  1  0
 25 26  2  0
 26 27  1  0
 27 28  2  0
 21 29  1  0
 29 30  1  0
 30 31  2  0
 30 32  1  0
 32 33  1  6
 33 34  1  0
 34 35  2  0
 34 36  1  0
 32 37  1  0
 37 38  1  0
 38 39  2  0
 38 40  1  0
 40 41  1  0
 41 42  1  0
 42 43  2  0
 42  8  1  0
 28 23  1  0
M  END
$$$$
