
     RDKit          3D

 14 15  0  0  0  0  0  0  0  0999 V2000
  -21.8287   36.2668  -23.9989 O   0  0  0  0  0  0  0  0  0  0  0  0
  -21.3284   36.4039  -22.8548 C   0  0  0  0  0  0  0  0  0  0  0  0
  -22.1115   36.0997  -21.7590 O   0  0  0  0  0  0  0  0  0  0  0  0
  -19.9413   36.8762  -22.6526 C   0  0  0  0  0  0  0  0  0  0  0  0
  -19.6253   38.2161  -22.7433 C   0  0  0  0  0  0  0  0  0  0  0  0
  -20.6578   39.1180  -23.0330 O   0  0  0  0  0  0  0  0  0  0  0  0
  -18.3220   38.6218  -22.5490 C   0  0  0  0  0  0  0  0  0  0  0  0
  -17.3108   37.7156  -22.2628 C   0  0  0  0  0  0  0  0  0  0  0  0
  -17.6210   36.3700  -22.1703 C   0  0  0  0  0  0  0  0  0  0  0  0
  -16.6112   35.4457  -21.8823 C   0  0  0  0  0  0  0  0  0  0  0  0
  -16.9366   34.1063  -21.7933 C   0  0  0  0  0  0  0  0  0  0  0  0
  -18.2487   33.7374  -21.9933 C   0  0  0  0  0  0  0  0  0  0  0  0
  -19.2582   34.6305  -22.2778 C   0  0  0  0  0  0  0  0  0  0  0  0
  -18.9295   35.9814  -22.3675 C   0  0  0  0  0  0  0  0  0  0  0  0
  1  2  2  0
  2  3  1  0
  2  4  1  0
  4  5  2  0
  5  6  1  0
  5  7  1  0
  7  8  2  0
  8  9  1  0
  9 10  2  0
 10 11  1  0
 11 12  2  0
 12 13  1  0
 13 14  2  0
 14  4  1  0
 14  9  1  0
M  END
$$$$
