
     RDKit          3D

 30 29  0  0  0  0  0  0  0  0999 V2000
  -28.5585   20.8265  -31.2109 N   0  0  0  0  0  0  0  0  0  0  0  0
  -29.5263   21.6337  -30.8917 C   0  0  0  0  0  0  0  0  0  0  0  0
  -30.3406   22.1088  -31.9597 N   0  0  0  0  0  0  0  0  0  0  0  0
  -29.7540   22.0166  -29.5499 N   0  0  0  0  0  0  0  0  0  0  0  0
  -29.7091   21.0408  -28.4977 C   0  0  0  0  0  0  0  0  0  0  0  0
  -30.5845   19.8644  -28.7543 C   0  0  0  0  0  0  0  0  0  0  0  0
  -30.6843   18.8601  -27.6609 C   0  0  0  0  0  0  0  0  0  0  0  0
  -31.5357   17.6630  -27.9730 C   0  0  2  0  0  0  0  0  0  0  0  0
  -32.7701   18.0491  -28.5787 N   0  0  0  0  0  0  0  0  0  0  0  0
  -31.7572   16.8456  -26.7279 C   0  0  0  0  0  0  0  0  0  0  0  0
  -32.6620   15.9767  -26.7821 O   0  0  0  0  0  0  0  0  0  0  0  0
  -30.9661   17.0721  -25.5714 N   0  0  0  0  0  0  0  0  0  0  0  0
  -31.3044   16.4712  -24.3192 C   0  0  0  0  0  0  0  0  0  0  0  0
  -32.1041   15.2291  -24.5342 C   0  0  0  0  0  0  0  0  0  0  0  0
  -31.5220   14.1426  -24.6414 O   0  0  0  0  0  0  0  0  0  0  0  0
  -33.5310   15.2692  -24.6188 N   0  0  0  0  0  0  0  0  0  0  0  0
  -34.3156   14.0694  -24.6114 C   0  0  1  0  0  0  0  0  0  0  0  0
  -35.7894   14.3014  -24.4587 C   0  0  0  0  0  0  0  0  0  0  0  0
  -36.1630   14.7821  -23.0986 C   0  0  0  0  0  0  0  0  0  0  0  0
  -35.3034   14.7889  -22.1824 O   0  0  0  0  0  0  0  0  0  0  0  0
  -37.4316   15.2276  -22.7936 O   0  0  0  0  0  0  0  0  0  0  0  0
  -34.1246   13.3490  -25.9012 C   0  0  0  0  0  0  0  0  0  0  0  0
  -34.9123   13.5349  -26.8670 O   0  0  0  0  0  0  0  0  0  0  0  0
  -33.0633   12.4295  -26.1109 N   0  0  0  0  0  0  0  0  0  0  0  0
  -32.8044   11.8365  -27.4078 C   0  0  1  0  0  0  0  0  0  0  0  0
  -31.2751   11.6957  -27.4835 C   0  0  0  0  0  0  0  0  0  0  0  0
  -30.9187   10.7802  -29.0080 S   0  0  0  0  0  0  0  0  0  0  0  0
  -33.4309   10.5074  -27.5486 C   0  0  0  0  0  0  0  0  0  0  0  0
  -33.5039    9.7107  -26.5823 O   0  0  0  0  0  0  0  0  0  0  0  0
  -33.9602   10.0980  -28.7612 O   0  0  0  0  0  0  0  0  0  0  0  0
  1  2  2  0
  2  3  1  0
  2  4  1  0
  4  5  1  0
  5  6  1  0
  6  7  1  0
  7  8  1  0
  8  9  1  1
  8 10  1  0
 10 11  2  0
 10 12  1  0
 12 13  1  0
 13 14  1  0
 14 15  2  0
 14 16  1  0
 16 17  1  0
 17 18  1  6
 18 19  1  0
 19 20  2  0
 19 21  1  0
 17 22  1  0
 22 23  2  0
 22 24  1  0
 24 25  1  0
 25 26  1  1
 26 27  1  0
 25 28  1  0
 28 29  2  0
 28 30  1  0
M  END
$$$$
