
     RDKit          3D

 24 25  0  0  0  0  0  0  0  0999 V2000
    6.5395   22.1323  -17.7813 C   0  0  0  0  0  0  0  0  0  0  0  0
    5.3476   21.4113  -18.0580 N   0  0  0  0  0  0  0  0  0  0  0  0
    4.9136   20.5026  -17.0839 C   0  0  0  0  0  0  0  0  0  0  0  0
    4.3939   22.1547  -18.8031 C   0  0  1  0  0  0  0  0  0  0  0  0
    3.1253   21.4526  -19.1289 C   0  0  0  0  0  0  0  0  0  0  0  0
    3.3201   20.1956  -19.9454 C   0  0  0  0  0  0  0  0  0  0  0  0
    2.0159   19.6464  -20.1824 O   0  0  0  0  0  0  0  0  0  0  0  0
    1.8806   18.4922  -20.8975 C   0  0  0  0  0  0  0  0  0  0  0  0
    2.9980   17.8589  -21.3920 C   0  0  0  0  0  0  0  0  0  0  0  0
    2.8600   16.7005  -22.1093 C   0  0  0  0  0  0  0  0  0  0  0  0
    1.5947   16.1807  -22.3281 C   0  0  0  0  0  0  0  0  0  0  0  0
    0.4515   16.7918  -21.8454 C   0  0  0  0  0  0  0  0  0  0  0  0
   -0.7905   16.2449  -22.0822 C   0  0  0  0  0  0  0  0  0  0  0  0
   -1.8655   16.9216  -21.5636 C   0  0  0  0  0  0  0  0  0  0  0  0
   -1.7624   18.0806  -20.8433 C   0  0  0  0  0  0  0  0  0  0  0  0
   -0.5074   18.5964  -20.6270 C   0  0  0  0  0  0  0  0  0  0  0  0
    0.6291   17.9536  -21.1297 C   0  0  0  0  0  0  0  0  0  0  0  0
    4.0405   23.4588  -18.2149 C   0  0  0  0  0  0  0  0  0  0  0  0
    3.9324   24.5877  -18.9899 C   0  0  0  0  0  0  0  0  0  0  0  0
    3.6012   25.8226  -18.4572 C   0  0  0  0  0  0  0  0  0  0  0  0
    3.3740   25.9141  -17.1012 C   0  0  0  0  0  0  0  0  0  0  0  0
    3.4727   24.8128  -16.2993 C   0  0  0  0  0  0  0  0  0  0  0  0
    3.8092   23.5777  -16.8684 C   0  0  0  0  0  0  0  0  0  0  0  0
    2.5940   19.9764  -19.3355 Cl  0  0  0  0  0  0  0  0  0  0  0  0
  1  2  1  0
  2  3  1  0
  2  4  1  0
  4  5  1  1
  5  6  1  0
  6  7  1  0
  7  8  1  0
  8  9  2  0
  9 10  1  0
 10 11  2  0
 11 12  1  0
 12 13  2  0
 13 14  1  0
 14 15  2  0
 15 16  1  0
 16 17  2  0
  4 18  1  0
 18 19  2  0
 19 20  1  0
 20 21  2  0
 21 22  1  0
 22 23  2  0
 17  8  1  0
 23 18  1  0
 17 12  1  0
M  END
$$$$
