
     RDKit          3D

 27 30  0  0  0  0  0  0  0  0999 V2000
  -19.2388   44.6628  -22.9197 C   0  0  0  0  0  0  0  0  0  0  0  0
  -18.6960   43.6363  -21.9907 C   0  0  0  0  0  0  0  0  0  0  0  0
  -18.7136   42.2711  -22.1223 C   0  0  0  0  0  0  0  0  0  0  0  0
  -18.0922   41.7452  -21.0117 C   0  0  0  0  0  0  0  0  0  0  0  0
  -17.8543   40.3518  -20.6728 C   0  0  0  0  0  0  0  0  0  0  0  0
  -17.1631   40.0058  -19.5571 N   0  0  0  0  0  0  0  0  0  0  0  0
  -16.9356   38.7454  -19.2307 N   0  0  0  0  0  0  0  0  0  0  0  0
  -17.4206   37.7722  -20.0568 C   0  0  0  0  0  0  0  0  0  0  0  0
  -18.1192   38.0890  -21.1857 C   0  0  0  0  0  0  0  0  0  0  0  0
  -18.6957   37.2871  -22.1557 C   0  0  0  0  0  0  0  0  0  0  0  0
  -18.7533   35.8435  -22.2991 C   0  0  0  0  0  0  0  0  0  0  0  0
  -18.8940   35.3235  -23.6952 C   0  0  0  0  0  0  0  0  0  0  0  0
  -19.9070   35.2539  -21.5114 C   0  0  0  0  0  0  0  0  0  0  0  0
  -17.4663   35.2484  -21.7299 C   0  0  0  0  0  0  0  0  0  0  0  0
  -19.2610   38.1729  -23.0473 C   0  0  0  0  0  0  0  0  0  0  0  0
  -19.9716   37.9106  -24.2172 O   0  0  0  0  0  0  0  0  0  0  0  0
  -20.7079   38.8653  -24.9106 C   0  0  0  0  0  0  0  0  0  0  0  0
  -19.8369   39.6583  -25.7973 C   0  0  0  0  0  0  0  0  0  0  0  0
  -18.8675   40.4937  -25.3936 N   0  0  0  0  0  0  0  0  0  0  0  0
  -18.2796   41.0454  -26.4791 C   0  0  0  0  0  0  0  0  0  0  0  0
  -18.9040   40.5349  -27.5503 N   0  0  0  0  0  0  0  0  0  0  0  0
  -19.8417   39.6994  -27.1318 N   0  0  0  0  0  0  0  0  0  0  0  0
  -20.7227   38.9588  -28.0397 C   0  0  0  0  0  0  0  0  0  0  0  0
  -19.0149   39.4031  -22.6015 N   0  0  0  0  0  0  0  0  0  0  0  0
  -18.3283   39.3875  -21.4807 N   0  0  0  0  0  0  0  0  0  0  0  0
  -17.7283   42.8091  -20.2617 N   0  0  0  0  0  0  0  0  0  0  0  0
  -18.0992   43.9185  -20.8669 O   0  0  0  0  0  0  0  0  0  0  0  0
  1  2  1  0
  2  3  2  0
  3  4  1  0
  4  5  1  0
  5  6  2  0
  6  7  1  0
  7  8  2  0
  8  9  1  0
  9 10  2  0
 10 11  1  0
 11 12  1  0
 11 13  1  0
 11 14  1  0
 10 15  1  0
 15 16  1  0
 16 17  1  0
 17 18  1  0
 18 19  2  0
 19 20  1  0
 20 21  2  0
 21 22  1  0
 22 23  1  0
 15 24  2  0
 24 25  1  0
  4 26  2  0
 26 27  1  0
 27  2  1  0
 25  5  1  0
 25  9  1  0
 22 18  1  0
M  END
$$$$
