
     RDKit          3D

 31 34  0  0  0  0  0  0  0  0999 V2000
  -30.4767   21.8161  -27.4440 O   0  0  0  0  0  0  0  0  0  0  0  0
  -30.0991   20.9165  -28.2154 C   0  0  0  0  0  0  0  0  0  0  0  0
  -29.8020   19.6225  -27.5774 C   0  0  0  0  0  0  0  0  0  0  0  0
  -30.1629   19.5881  -26.2461 C   0  0  0  0  0  0  0  0  0  0  0  0
  -29.9425   18.4271  -25.5087 C   0  0  0  0  0  0  0  0  0  0  0  0
  -29.3741   17.2931  -26.0436 C   0  0  0  0  0  0  0  0  0  0  0  0
  -29.1144   16.0985  -25.3142 N   0  0  0  0  0  0  0  0  0  0  0  0
  -28.1896   15.9574  -24.2659 C   0  0  0  0  0  0  0  0  0  0  0  0
  -27.3156   16.9322  -23.8785 C   0  0  0  0  0  0  0  0  0  0  0  0
  -26.4382   16.7196  -22.8085 C   0  0  0  0  0  0  0  0  0  0  0  0
  -26.4132   15.5344  -22.1050 C   0  0  0  0  0  0  0  0  0  0  0  0
  -25.5512   15.3691  -21.0786 F   0  0  0  0  0  0  0  0  0  0  0  0
  -27.2975   14.5539  -22.5014 C   0  0  0  0  0  0  0  0  0  0  0  0
  -28.1594   14.7652  -23.5534 C   0  0  0  0  0  0  0  0  0  0  0  0
  -29.0242   13.7849  -23.9286 F   0  0  0  0  0  0  0  0  0  0  0  0
  -29.0257   17.3798  -27.4006 C   0  0  0  0  0  0  0  0  0  0  0  0
  -29.2294   18.5100  -28.1587 C   0  0  0  0  0  0  0  0  0  0  0  0
  -28.7797   18.3618  -29.5681 C   0  0  0  0  0  0  0  0  0  0  0  0
  -29.8580   18.8032  -30.5497 C   0  0  0  0  0  0  0  0  0  0  0  0
  -29.8856   20.3022  -30.6697 C   0  0  0  0  0  0  0  0  0  0  0  0
  -29.7920   20.7410  -31.9624 C   0  0  0  0  0  0  0  0  0  0  0  0
  -29.8072   22.0999  -32.1927 C   0  0  0  0  0  0  0  0  0  0  0  0
  -29.9132   23.0379  -31.1702 C   0  0  0  0  0  0  0  0  0  0  0  0
  -29.9249   24.4003  -31.4456 O   0  0  0  0  0  0  0  0  0  0  0  0
  -29.0913   24.8826  -32.4791 C   0  0  0  0  0  0  0  0  0  0  0  0
  -27.8655   25.5904  -31.8966 C   0  0  2  0  0  0  0  0  0  0  0  0
  -28.2336   26.6592  -31.1064 O   0  0  0  0  0  0  0  0  0  0  0  0
  -27.0818   26.1637  -33.0771 C   0  0  0  0  0  0  0  0  0  0  0  0
  -25.9679   26.8557  -32.6624 O   0  0  0  0  0  0  0  0  0  0  0  0
  -30.0087   22.5865  -29.8502 C   0  0  0  0  0  0  0  0  0  0  0  0
  -29.9906   21.2314  -29.6563 C   0  0  0  0  0  0  0  0  0  0  0  0
  1  2  2  0
  2  3  1  0
  3  4  2  0
  4  5  1  0
  5  6  2  0
  6  7  1  0
  7  8  1  0
  8  9  2  0
  9 10  1  0
 10 11  2  0
 11 12  1  0
 11 13  1  0
 13 14  2  0
 14 15  1  0
  6 16  1  0
 16 17  2  0
 17 18  1  0
 18 19  1  0
 19 20  1  0
 20 21  2  0
 21 22  1  0
 22 23  2  0
 23 24  1  0
 24 25  1  0
 25 26  1  0
 26 27  1  1
 26 28  1  0
 28 29  1  0
 23 30  1  0
 30 31  2  0
 31  2  1  0
 17  3  1  0
 31 20  1  0
 14  8  1  0
M  END
$$$$
