
     RDKit          3D

 21 24  0  0  0  0  0  0  0  0999 V2000
  -21.9629   36.9169  -23.6800 O   0  0  0  0  0  0  0  0  0  0  0  0
  -20.9314   37.8221  -24.0094 C   0  0  0  0  0  0  0  0  0  0  0  0
  -20.2937   38.2436  -22.7474 C   0  0  0  0  0  0  0  0  0  0  0  0
  -18.8230   38.5723  -22.9681 C   0  0  0  0  0  0  0  0  0  0  0  0
  -18.5395   39.8959  -22.3353 C   0  0  0  0  0  0  0  0  0  0  0  0
  -19.0919   41.1594  -22.5601 C   0  0  0  0  0  0  0  0  0  0  0  0
  -18.6858   42.2531  -21.8264 C   0  0  0  0  0  0  0  0  0  0  0  0
  -17.7110   42.0449  -20.8614 C   0  0  0  0  0  0  0  0  0  0  0  0
  -17.1663   40.7965  -20.6411 C   0  0  0  0  0  0  0  0  0  0  0  0
  -17.5818   39.6959  -21.3874 C   0  0  0  0  0  0  0  0  0  0  0  0
  -17.2057   38.2910  -21.4218 C   0  0  0  0  0  0  0  0  0  0  0  0
  -16.3423   37.3660  -20.8456 C   0  0  0  0  0  0  0  0  0  0  0  0
  -16.5647   36.2089  -21.4647 N   0  0  0  0  0  0  0  0  0  0  0  0
  -17.5167   36.3363  -22.4005 C   0  0  0  0  0  0  0  0  0  0  0  0
  -17.9102   37.6467  -22.3605 N   0  0  0  0  0  0  0  0  0  0  0  0
  -19.9726   37.0120  -24.8926 C   0  0  0  0  0  0  0  0  0  0  0  0
  -20.7194   36.6560  -26.1436 C   0  0  0  0  0  0  0  0  0  0  0  0
  -20.2231   37.4085  -27.3548 C   0  0  0  0  0  0  0  0  0  0  0  0
  -19.8613   38.8396  -27.0476 C   0  0  0  0  0  0  0  0  0  0  0  0
  -18.8293   38.9717  -25.9582 C   0  0  0  0  0  0  0  0  0  0  0  0
  -18.6836   37.7132  -25.1424 C   0  0  0  0  0  0  0  0  0  0  0  0
  1  2  1  0
  2  3  1  0
  3  4  1  0
  4  5  1  0
  5  6  2  0
  6  7  1  0
  7  8  2  0
  8  9  1  0
  9 10  2  0
 10 11  1  0
 11 12  2  0
 12 13  1  0
 13 14  2  0
 14 15  1  0
  2 16  1  0
 16 17  1  0
 17 18  1  0
 18 19  1  0
 19 20  1  0
 20 21  1  0
 15  4  1  0
 21 16  1  0
 10  5  1  0
 15 11  1  0
M  END
$$$$
