
     RDKit          3D

 28 30  0  0  0  0  0  0  0  0999 V2000
  -11.4435   -4.1625  -38.8709 C   0  0  0  0  0  0  0  0  0  0  0  0
  -11.5970   -3.5586  -37.4962 C   0  0  0  0  0  0  0  0  0  0  0  0
  -12.4758   -4.5112  -36.6617 C   0  0  0  0  0  0  0  0  0  0  0  0
  -12.6662   -3.9179  -35.3233 N   0  0  0  0  0  0  0  0  0  0  0  0
  -11.8479   -4.3496  -34.2421 C   0  0  0  0  0  0  0  0  0  0  0  0
  -12.4774   -5.4703  -33.4360 C   0  0  0  0  0  0  0  0  0  0  0  0
  -11.5730   -5.7846  -32.2669 C   0  0  0  0  0  0  0  0  0  0  0  0
  -13.6888   -2.9625  -35.1363 C   0  0  0  0  0  0  0  0  0  0  0  0
  -14.6167   -2.6848  -36.1516 C   0  0  0  0  0  0  0  0  0  0  0  0
  -15.6039   -1.7325  -36.0340 C   0  0  0  0  0  0  0  0  0  0  0  0
  -16.5400   -1.5210  -37.1833 C   0  0  0  0  0  0  0  0  0  0  0  0
  -15.7029   -1.0234  -34.9040 N   0  0  0  0  0  0  0  0  0  0  0  0
  -14.8055   -1.2765  -33.8942 C   0  0  0  0  0  0  0  0  0  0  0  0
  -14.6587   -0.7062  -32.6474 C   0  0  0  0  0  0  0  0  0  0  0  0
  -15.4887    0.3494  -32.1084 C   0  0  0  0  0  0  0  0  0  0  0  0
  -16.8237    0.1505  -31.8529 C   0  0  0  0  0  0  0  0  0  0  0  0
  -17.5475    1.1669  -31.3542 N   0  0  0  0  0  0  0  0  0  0  0  0
  -17.0495    2.3887  -31.0818 C   0  0  0  0  0  0  0  0  0  0  0  0
  -17.8399    3.4364  -30.5611 N   0  0  0  0  0  0  0  0  0  0  0  0
  -19.2136    3.1839  -30.2207 C   0  0  0  0  0  0  0  0  0  0  0  0
  -17.2688    4.7376  -30.3757 C   0  0  0  0  0  0  0  0  0  0  0  0
  -15.7044    2.5749  -31.3440 C   0  0  0  0  0  0  0  0  0  0  0  0
  -14.9060    1.5716  -31.8561 C   0  0  0  0  0  0  0  0  0  0  0  0
  -13.4587    1.8475  -32.1159 C   0  0  0  0  0  0  0  0  0  0  0  0
  -13.5997   -1.2983  -32.0123 C   0  0  0  0  0  0  0  0  0  0  0  0
  -13.0569   -1.0162  -30.6461 C   0  0  0  0  0  0  0  0  0  0  0  0
  -13.1397   -2.2033  -32.8860 N   0  0  0  0  0  0  0  0  0  0  0  0
  -13.8419   -2.2053  -34.0075 N   0  0  0  0  0  0  0  0  0  0  0  0
  1  2  1  0
  2  3  1  0
  3  4  1  0
  4  5  1  0
  5  6  1  0
  6  7  1  0
  4  8  1  0
  8  9  2  0
  9 10  1  0
 10 11  1  0
 10 12  2  0
 12 13  1  0
 13 14  2  0
 14 15  1  0
 15 16  2  0
 16 17  1  0
 17 18  2  0
 18 19  1  0
 19 20  1  0
 19 21  1  0
 18 22  1  0
 22 23  2  0
 23 24  1  0
 14 25  1  0
 25 26  1  0
 25 27  2  0
 27 28  1  0
 28  8  1  0
 28 13  1  0
 23 15  1  0
M  END
$$$$
