
     RDKit          3D

 12 13  0  0  0  0  0  0  0  0999 V2000
  -29.2240   18.6666  -27.3146 C   0  0  0  0  0  0  0  0  0  0  0  0
  -28.2865   17.9822  -26.5729 C   0  0  0  0  0  0  0  0  0  0  0  0
  -28.6517   16.7863  -25.9548 C   0  0  0  0  0  0  0  0  0  0  0  0
  -29.9113   16.3047  -26.0825 C   0  0  0  0  0  0  0  0  0  0  0  0
  -30.3611   15.0482  -25.4554 C   0  0  0  0  0  0  0  0  0  0  0  0
  -29.4905   14.0713  -25.0522 C   0  0  0  0  0  0  0  0  0  0  0  0
  -29.9494   12.8876  -24.4591 C   0  0  0  0  0  0  0  0  0  0  0  0
  -31.2993   12.6920  -24.2731 C   0  0  0  0  0  0  0  0  0  0  0  0
  -32.1507   13.6940  -24.6896 C   0  0  0  0  0  0  0  0  0  0  0  0
  -31.6844   14.8213  -25.2564 N   0  0  0  0  0  0  0  0  0  0  0  0
  -30.7976   17.0056  -26.8170 N   0  0  0  0  0  0  0  0  0  0  0  0
  -30.4802   18.1471  -27.4176 C   0  0  0  0  0  0  0  0  0  0  0  0
  1  2  2  0
  2  3  1  0
  3  4  2  0
  4  5  1  0
  5  6  2  0
  6  7  1  0
  7  8  2  0
  8  9  1  0
  9 10  2  0
  4 11  1  0
 11 12  2  0
 12  1  1  0
 10  5  1  0
M  END
$$$$
