
     RDKit          3D

 35 38  0  0  0  0  0  0  0  0999 V2000
  -19.4558   23.8097  -43.1037 C   0  0  0  0  0  0  0  0  0  0  0  0
  -18.7049   22.6122  -43.0998 O   0  0  0  0  0  0  0  0  0  0  0  0
  -18.6641   21.8485  -41.9514 C   0  0  0  0  0  0  0  0  0  0  0  0
  -19.7404   21.8673  -41.0651 C   0  0  0  0  0  0  0  0  0  0  0  0
  -19.7357   21.1190  -39.9100 C   0  0  0  0  0  0  0  0  0  0  0  0
  -20.7728   21.1068  -39.0056 C   0  0  0  0  0  0  0  0  0  0  0  0
  -21.9386   21.8791  -39.2433 N   0  0  0  0  0  0  0  0  0  0  0  0
  -23.0244   21.9365  -38.2438 C   0  0  0  0  0  0  0  0  0  0  0  0
  -24.3366   22.2472  -38.9259 C   0  0  0  0  0  0  0  0  0  0  0  0
  -24.7121   23.6844  -38.9460 C   0  0  0  0  0  0  0  0  0  0  0  0
  -24.5773   24.2820  -37.6465 N   0  0  0  0  0  0  0  0  0  0  0  0
  -25.4180   23.7060  -36.6410 C   0  0  0  0  0  0  0  0  0  0  0  0
  -23.1761   24.2907  -37.3258 C   0  0  0  0  0  0  0  0  0  0  0  0
  -22.6998   22.8750  -37.1379 C   0  0  0  0  0  0  0  0  0  0  0  0
  -20.6818   20.3461  -37.9011 N   0  0  0  0  0  0  0  0  0  0  0  0
  -19.5948   19.5992  -37.6685 C   0  0  0  0  0  0  0  0  0  0  0  0
  -19.4626   18.7825  -36.5123 N   0  0  0  0  0  0  0  0  0  0  0  0
  -18.5865   17.6501  -36.6706 C   0  0  0  0  0  0  0  0  0  0  0  0
  -18.1978   17.0388  -35.3421 C   0  0  0  0  0  0  0  0  0  0  0  0
  -19.3919   16.3432  -34.7078 C   0  0  0  0  0  0  0  0  0  0  0  0
  -20.0240   17.3438  -33.8474 N   0  0  0  0  0  0  0  0  0  0  0  0
  -20.7061   16.7142  -32.7337 C   0  0  0  0  0  0  0  0  0  0  0  0
  -20.9256   18.1094  -34.6644 C   0  0  0  0  0  0  0  0  0  0  0  0
  -20.2408   19.2497  -35.3875 C   0  0  0  0  0  0  0  0  0  0  0  0
  -18.5845   19.6121  -38.5512 N   0  0  0  0  0  0  0  0  0  0  0  0
  -18.5947   20.3425  -39.6773 C   0  0  0  0  0  0  0  0  0  0  0  0
  -17.5253   20.3252  -40.5603 C   0  0  0  0  0  0  0  0  0  0  0  0
  -17.5468   21.0782  -41.7084 C   0  0  0  0  0  0  0  0  0  0  0  0
  -16.5138   21.1027  -42.6249 O   0  0  0  0  0  0  0  0  0  0  0  0
  -15.9541   19.9646  -43.2172 C   0  0  0  0  0  0  0  0  0  0  0  0
  -14.7223   19.5654  -42.3992 C   0  0  0  0  0  0  0  0  0  0  0  0
  -14.0366   18.4536  -43.1779 C   0  0  0  0  0  0  0  0  0  0  0  0
  -12.8866   18.0234  -42.4333 N   0  0  0  0  0  0  0  0  0  0  0  0
  -11.9825   19.0820  -42.1036 C   0  0  0  0  0  0  0  0  0  0  0  0
  -12.2506   16.8620  -42.9853 C   0  0  0  0  0  0  0  0  0  0  0  0
  1  2  1  0
  2  3  1  0
  3  4  2  0
  4  5  1  0
  5  6  2  0
  6  7  1  0
  7  8  1  0
  8  9  1  0
  9 10  1  0
 10 11  1  0
 11 12  1  0
 11 13  1  0
 13 14  1  0
  6 15  1  0
 15 16  2  0
 16 17  1  0
 17 18  1  0
 18 19  1  0
 19 20  1  0
 20 21  1  0
 21 22  1  0
 21 23  1  0
 23 24  1  0
 16 25  1  0
 25 26  2  0
 26 27  1  0
 27 28  2  0
 28 29  1  0
 29 30  1  0
 30 31  1  0
 31 32  1  0
 32 33  1  0
 33 34  1  0
 33 35  1  0
 28  3  1  0
 26  5  1  0
 14  8  1  0
 24 17  1  0
M  END
$$$$
