
     RDKit          3D

 33 37  0  0  0  0  0  0  0  0999 V2000
  -19.6813   24.2819  -34.7608 C   0  0  0  0  0  0  0  0  0  0  0  0
  -21.0256   23.9384  -34.9563 O   0  0  0  0  0  0  0  0  0  0  0  0
  -21.6911   23.7973  -36.1422 C   0  0  0  0  0  0  0  0  0  0  0  0
  -21.4066   22.7826  -37.0261 C   0  0  0  0  0  0  0  0  0  0  0  0
  -22.0618   22.6058  -38.2420 C   0  0  0  0  0  0  0  0  0  0  0  0
  -21.7394   21.5194  -39.0928 N   0  0  0  0  0  0  0  0  0  0  0  0
  -21.3245   20.2703  -38.5271 C   0  0  0  0  0  0  0  0  0  0  0  0
  -21.5337   19.1956  -39.5766 C   0  0  0  0  0  0  0  0  0  0  0  0
  -20.8760   19.4504  -40.7969 N   0  0  0  0  0  0  0  0  0  0  0  0
  -19.6798   18.7326  -41.0694 C   0  0  0  0  0  0  0  0  0  0  0  0
  -20.9634   20.7695  -41.3054 C   0  0  0  0  0  0  0  0  0  0  0  0
  -21.8135   21.7037  -40.4990 C   0  0  0  0  0  0  0  0  0  0  0  0
  -23.0421   23.5305  -38.5231 C   0  0  0  0  0  0  0  0  0  0  0  0
  -23.3509   24.5613  -37.6538 C   0  0  0  0  0  0  0  0  0  0  0  0
  -22.6814   24.7014  -36.4646 C   0  0  0  0  0  0  0  0  0  0  0  0
  -23.0274   25.7865  -35.6029 N   0  0  0  0  0  0  0  0  0  0  0  0
  -24.3542   26.2857  -35.5065 C   0  0  0  0  0  0  0  0  0  0  0  0
  -24.7278   27.0307  -34.4313 N   0  0  0  0  0  0  0  0  0  0  0  0
  -25.9829   27.5148  -34.3112 C   0  0  0  0  0  0  0  0  0  0  0  0
  -26.9302   27.2710  -35.2739 C   0  0  0  0  0  0  0  0  0  0  0  0
  -26.5487   26.5160  -36.3590 C   0  0  0  0  0  0  0  0  0  0  0  0
  -25.2894   26.0493  -36.4463 N   0  0  0  0  0  0  0  0  0  0  0  0
  -27.3505   26.1157  -37.4864 N   0  0  0  0  0  0  0  0  0  0  0  0
  -26.8246   25.0121  -38.2358 C   0  0  0  0  0  0  0  0  0  0  0  0
  -28.5821   26.6757  -37.9357 C   0  0  0  0  0  0  0  0  0  0  0  0
  -28.8292   26.3921  -39.2600 C   0  0  0  0  0  0  0  0  0  0  0  0
  -29.9703   26.8299  -39.9011 C   0  0  0  0  0  0  0  0  0  0  0  0
  -30.8846   27.5806  -39.1621 C   0  0  0  0  0  0  0  0  0  0  0  0
  -30.6540   27.8724  -37.8426 C   0  0  0  0  0  0  0  0  0  0  0  0
  -29.4996   27.4237  -37.2111 C   0  0  0  0  0  0  0  0  0  0  0  0
  -29.3995   27.8177  -35.8105 C   0  0  0  0  0  0  0  0  0  0  0  0
  -30.4888   28.1509  -35.2981 O   0  0  0  0  0  0  0  0  0  0  0  0
  -28.2080   27.8527  -35.0122 N   0  0  0  0  0  0  0  0  0  0  0  0
  1  2  1  0
  2  3  1  0
  3  4  2  0
  4  5  1  0
  5  6  1  0
  6  7  1  0
  7  8  1  0
  8  9  1  0
  9 10  1  0
  9 11  1  0
 11 12  1  0
  5 13  2  0
 13 14  1  0
 14 15  2  0
 15 16  1  0
 16 17  1  0
 17 18  2  0
 18 19  1  0
 19 20  2  0
 20 21  1  0
 21 22  2  0
 21 23  1  0
 23 24  1  0
 23 25  1  0
 25 26  2  0
 26 27  1  0
 27 28  2  0
 28 29  1  0
 29 30  2  0
 30 31  1  0
 31 32  2  0
 31 33  1  0
 15  3  1  0
 22 17  1  0
 30 25  1  0
 12  6  1  0
 33 20  1  0
M  END
$$$$
