
     RDKit          3D

 55 59  0  0  0  0  0  0  0  0999 V2000
  -31.0285   50.1186  -17.1607 C   0  0  0  0  0  0  0  0  0  0  0  0
  -29.7629   50.3216  -17.7234 O   0  0  0  0  0  0  0  0  0  0  0  0
  -28.9120   49.3200  -18.1353 C   0  0  0  0  0  0  0  0  0  0  0  0
  -29.2296   47.9964  -18.0323 C   0  0  0  0  0  0  0  0  0  0  0  0
  -28.3472   47.0312  -18.4570 C   0  0  0  0  0  0  0  0  0  0  0  0
  -27.1158   47.3502  -18.9997 C   0  0  0  0  0  0  0  0  0  0  0  0
  -26.2370   46.3757  -19.4224 C   0  0  0  0  0  0  0  0  0  0  0  0
  -24.9973   46.6897  -19.9683 C   0  0  0  0  0  0  0  0  0  0  0  0
  -23.9755   45.3677  -20.4739 S   0  0  0  0  0  6  0  0  0  0  0  0
  -24.7719   44.2185  -21.0220 O   0  0  0  0  0  0  0  0  0  0  0  0
  -23.1338   45.9089  -21.6220 O   0  0  0  0  0  0  0  0  0  0  0  0
  -22.9936   44.7627  -19.2107 N   0  0  0  0  0  0  0  0  0  0  0  0
  -21.5932   45.0425  -19.5316 C   0  0  2  0  0  0  0  0  0  0  0  0
  -20.8723   43.7048  -19.7416 C   0  0  0  0  0  0  0  0  0  0  0  0
  -19.4549   43.9727  -20.0565 C   0  0  0  0  0  0  0  0  0  0  0  0
  -18.9578   45.1238  -20.0749 O   0  0  0  0  0  0  0  0  0  0  0  0
  -18.5543   42.9133  -20.3628 N   0  0  0  0  0  0  0  0  0  0  0  0
  -17.1572   43.1593  -20.6632 C   0  0  2  0  0  0  0  0  0  0  0  0
  -16.9028   42.8557  -22.1190 C   0  0  0  0  0  0  0  0  0  0  0  0
  -17.1892   41.4641  -22.5118 C   0  0  0  0  0  0  0  0  0  0  0  0
  -18.3976   41.0752  -23.0016 C   0  0  0  0  0  0  0  0  0  0  0  0
  -18.5948   39.7393  -23.3577 C   0  0  0  0  0  0  0  0  0  0  0  0
  -17.6453   38.7654  -23.2503 C   0  0  0  0  0  0  0  0  0  0  0  0
  -17.8018   37.3510  -23.6175 C   0  0  0  0  0  0  0  0  0  0  0  0
  -18.0827   36.3993  -22.6143 N   0  0  0  0  0  0  0  0  0  0  0  0
  -17.9775   35.0300  -23.2163 C   0  0  1  0  0  0  0  0  0  0  0  0
  -16.8289   34.9330  -24.1773 C   0  0  0  0  0  0  0  0  0  0  0  0
  -17.6695   34.0973  -22.0735 C   0  0  0  0  0  0  0  0  0  0  0  0
  -18.8637   34.0496  -21.1454 C   0  0  0  0  0  0  0  0  0  0  0  0
  -19.4584   35.3753  -20.8846 C   0  0  0  0  0  0  0  0  0  0  0  0
  -19.3908   36.3760  -22.0254 C   0  0  1  0  0  0  0  0  0  0  0  0
  -19.9248   37.6517  -21.4793 C   0  0  0  0  0  0  0  0  0  0  0  0
  -16.4046   39.1982  -22.7396 C   0  0  0  0  0  0  0  0  0  0  0  0
  -16.1965   40.5121  -22.3849 C   0  0  0  0  0  0  0  0  0  0  0  0
  -16.2761   42.4319  -19.7302 C   0  0  0  0  0  0  0  0  0  0  0  0
  -16.8284   41.6405  -18.8853 O   0  0  0  0  0  0  0  0  0  0  0  0
  -14.8725   42.5255  -19.6744 N   0  0  0  0  0  0  0  0  0  0  0  0
  -14.0816   43.3778  -20.5461 C   0  0  0  0  0  0  0  0  0  0  0  0
  -14.1459   41.7238  -18.6703 C   0  0  0  0  0  0  0  0  0  0  0  0
  -13.3848   42.7337  -17.8391 C   0  0  0  0  0  0  0  0  0  0  0  0
  -13.2225   40.7439  -19.3420 C   0  0  0  0  0  0  0  0  0  0  0  0
  -20.9826   45.8282  -18.4586 C   0  0  0  0  0  0  0  0  0  0  0  0
  -20.3308   47.0223  -18.6457 C   0  0  0  0  0  0  0  0  0  0  0  0
  -19.7427   47.7587  -17.6416 C   0  0  0  0  0  0  0  0  0  0  0  0
  -19.7998   47.2863  -16.3589 C   0  0  0  0  0  0  0  0  0  0  0  0
  -20.4451   46.0861  -16.1088 C   0  0  0  0  0  0  0  0  0  0  0  0
  -21.0210   45.3773  -17.1344 C   0  0  0  0  0  0  0  0  0  0  0  0
  -20.3857   45.7941  -14.7478 O   0  0  0  0  0  0  0  0  0  0  0  0
  -20.0055   46.9989  -14.0943 C   0  0  0  0  0  0  0  0  0  0  0  0
  -19.3415   47.7282  -15.1261 O   0  0  0  0  0  0  0  0  0  0  0  0
  -24.6783   48.0143  -20.0717 C   0  0  0  0  0  0  0  0  0  0  0  0
  -25.5548   49.0050  -19.6498 C   0  0  0  0  0  0  0  0  0  0  0  0
  -26.7862   48.6824  -19.1078 C   0  0  0  0  0  0  0  0  0  0  0  0
  -27.6874   49.6469  -18.6747 C   0  0  0  0  0  0  0  0  0  0  0  0
  -20.4028   43.1989  -19.8597 Cl  0  0  0  0  0  0  0  0  0  0  0  0
  1  2  1  0
  2  3  1  0
  3  4  2  0
  4  5  1  0
  5  6  2  0
  6  7  1  0
  7  8  2  0
  8  9  1  0
  9 10  2  0
  9 11  2  0
  9 12  1  0
 12 13  1  0
 13 14  1  1
 14 15  1  0
 15 16  2  0
 15 17  1  0
 17 18  1  0
 18 19  1  6
 19 20  1  0
 20 21  2  0
 21 22  1  0
 22 23  2  0
 23 24  1  0
 24 25  1  0
 25 26  1  0
 26 27  1  6
 26 28  1  0
 28 29  1  0
 29 30  1  0
 30 31  1  0
 31 32  1  1
 23 33  1  0
 33 34  2  0
 18 35  1  0
 35 36  2  0
 35 37  1  0
 37 38  1  0
 37 39  1  0
 39 40  1  0
 39 41  1  0
 13 42  1  0
 42 43  2  0
 43 44  1  0
 44 45  2  0
 45 46  1  0
 46 47  2  0
 46 48  1  0
 48 49  1  0
 49 50  1  0
  8 51  1  0
 51 52  2  0
 52 53  1  0
 53 54  2  0
 54  3  1  0
 53  6  1  0
 34 20  1  0
 47 42  1  0
 31 25  1  0
 50 45  1  0
M  END
$$$$
