
     RDKit          3D

 37 41  0  0  0  0  0  0  0  0999 V2000
  -16.1338   49.8623  -22.4899 C   0  0  0  0  0  0  0  0  0  0  0  0
  -17.5081   49.4781  -22.2109 N   0  0  0  0  0  0  0  0  0  0  0  0
  -17.7539   49.2244  -20.8188 C   0  0  0  0  0  0  0  0  0  0  0  0
  -17.1272   47.9201  -20.3768 C   0  0  0  0  0  0  0  0  0  0  0  0
  -17.4771   46.7796  -21.2473 C   0  0  0  0  0  0  0  0  0  0  0  0
  -18.2647   45.6553  -20.5543 C   0  0  0  0  0  0  0  0  0  0  0  0
  -17.6637   44.5164  -20.5521 O   0  0  0  0  0  0  0  0  0  0  0  0
  -17.4739   43.2178  -20.6723 C   0  0  0  0  0  0  0  0  0  0  0  0
  -16.3834   42.4680  -20.2238 C   0  0  0  0  0  0  0  0  0  0  0  0
  -16.4445   41.1492  -20.4649 N   0  0  0  0  0  0  0  0  0  0  0  0
  -17.3027   40.4319  -21.0233 C   0  0  0  0  0  0  0  0  0  0  0  0
  -17.3205   38.9990  -21.3269 C   0  0  0  0  0  0  0  0  0  0  0  0
  -16.1663   38.2700  -21.3697 C   0  0  0  0  0  0  0  0  0  0  0  0
  -16.1357   36.9553  -21.6695 C   0  0  0  0  0  0  0  0  0  0  0  0
  -17.3488   36.3326  -21.9437 C   0  0  0  0  0  0  0  0  0  0  0  0
  -18.5075   37.0386  -21.9081 C   0  0  0  0  0  0  0  0  0  0  0  0
  -19.8092   36.2633  -22.0314 C   0  0  0  0  0  0  0  0  0  0  0  0
  -20.0378   36.2443  -23.5015 N   0  0  0  0  0  0  0  0  0  0  0  0
  -20.1740   37.3072  -24.1942 N   0  0  0  0  0  0  0  0  0  0  0  0
  -20.2301   37.4108  -25.5606 C   0  0  0  0  0  0  0  0  0  0  0  0
  -20.3977   38.6710  -26.2262 C   0  0  0  0  0  0  0  0  0  0  0  0
  -21.0396   38.7032  -27.4973 C   0  0  0  0  0  0  0  0  0  0  0  0
  -21.2543   39.9042  -28.1462 C   0  0  0  0  0  0  0  0  0  0  0  0
  -20.8684   41.0835  -27.6002 C   0  0  0  0  0  0  0  0  0  0  0  0
  -20.2555   41.0736  -26.3836 C   0  0  0  0  0  0  0  0  0  0  0  0
  -19.8677   42.3451  -25.7305 C   0  0  0  0  0  0  0  0  0  0  0  0
  -19.5896   43.2921  -25.2636 N   0  0  0  0  0  0  0  0  0  0  0  0
  -20.0186   39.8656  -25.6995 C   0  0  0  0  0  0  0  0  0  0  0  0
  -20.1282   36.1639  -26.1843 C   0  0  0  0  0  0  0  0  0  0  0  0
  -19.9864   35.0011  -25.5134 C   0  0  0  0  0  0  0  0  0  0  0  0
  -19.9412   35.0625  -24.1135 C   0  0  0  0  0  0  0  0  0  0  0  0
  -19.8073   33.9895  -23.4796 O   0  0  0  0  0  0  0  0  0  0  0  0
  -18.5268   38.3717  -21.6070 C   0  0  0  0  0  0  0  0  0  0  0  0
  -18.4340   41.1442  -21.4990 N   0  0  0  0  0  0  0  0  0  0  0  0
  -18.4931   42.4580  -21.3245 C   0  0  0  0  0  0  0  0  0  0  0  0
  -18.5472   47.3077  -22.2630 C   0  0  0  0  0  0  0  0  0  0  0  0
  -17.9130   48.3746  -23.0784 C   0  0  0  0  0  0  0  0  0  0  0  0
  1  2  1  0
  2  3  1  0
  3  4  1  0
  4  5  1  0
  5  6  1  0
  6  7  1  0
  7  8  1  0
  8  9  2  0
  9 10  1  0
 10 11  2  0
 11 12  1  0
 12 13  2  0
 13 14  1  0
 14 15  2  0
 15 16  1  0
 16 17  1  0
 17 18  1  0
 18 19  1  0
 19 20  2  0
 20 21  1  0
 21 22  2  0
 22 23  1  0
 23 24  2  0
 24 25  1  0
 25 26  1  0
 26 27  3  0
 25 28  2  0
 20 29  1  0
 29 30  2  0
 30 31  1  0
 31 32  2  0
 16 33  2  0
 11 34  1  0
 34 35  2  0
  5 36  1  0
 36 37  1  0
 37  2  1  0
 35  8  1  0
 33 12  1  0
 31 18  1  0
 28 21  1  0
M  END
$$$$
