
     RDKit          3D

 18 19  0  0  0  0  0  0  0  0999 V2000
  -16.5394   42.2189  -20.2667 C   0  0  0  0  0  0  0  0  0  0  0  0
  -16.5118   41.7644  -21.6044 O   0  0  0  0  0  0  0  0  0  0  0  0
  -17.2465   40.6405  -21.9399 C   0  0  0  0  0  0  0  0  0  0  0  0
  -16.7661   39.3771  -21.6826 C   0  0  0  0  0  0  0  0  0  0  0  0
  -17.5126   38.2439  -22.0233 C   0  0  0  0  0  0  0  0  0  0  0  0
  -18.7329   38.4211  -22.6197 C   0  0  0  0  0  0  0  0  0  0  0  0
  -19.5609   37.2930  -23.0267 C   0  0  0  0  0  0  0  0  0  0  0  0
  -19.4200   36.0820  -22.5756 C   0  0  0  0  0  0  0  0  0  0  0  0
  -17.9915   35.3722  -21.7484 S   0  0  0  0  0  0  0  0  0  0  0  0
  -18.5144   33.6707  -22.1643 C   0  0  0  0  0  0  0  0  0  0  0  0
  -17.7886   32.6592  -22.2344 O   0  0  0  0  0  0  0  0  0  0  0  0
  -19.8965   33.8376  -22.3685 N   0  0  0  0  0  0  0  0  0  0  0  0
  -20.3543   34.9781  -22.5664 C   0  0  0  0  0  0  0  0  0  0  0  0
  -21.7385   35.2041  -22.7740 O   0  0  0  0  0  0  0  0  0  0  0  0
  -19.2049   39.6913  -22.8729 C   0  0  0  0  0  0  0  0  0  0  0  0
  -18.4842   40.8206  -22.5442 C   0  0  0  0  0  0  0  0  0  0  0  0
  -18.9230   42.1021  -22.7814 O   0  0  0  0  0  0  0  0  0  0  0  0
  -20.1080   42.6396  -22.2310 C   0  0  0  0  0  0  0  0  0  0  0  0
  1  2  1  0
  2  3  1  0
  3  4  2  0
  4  5  1  0
  5  6  2  0
  6  7  1  0
  7  8  2  0
  8  9  1  0
  9 10  1  0
 10 11  2  0
 10 12  1  0
 12 13  2  0
 13 14  1  0
  6 15  1  0
 15 16  2  0
 16 17  1  0
 17 18  1  0
 16  3  1  0
 13  8  1  0
M  END
$$$$
