
     RDKit          3D

 34 38  0  0  0  0  0  0  0  0999 V2000
  -20.4124   42.7496  -20.9042 C   0  0  0  0  0  0  0  0  0  0  0  0
  -18.9634   42.4815  -20.9308 C   0  0  0  0  0  0  0  0  0  0  0  0
  -18.0899   43.4850  -20.5902 C   0  0  0  0  0  0  0  0  0  0  0  0
  -16.7455   43.2093  -20.6231 C   0  0  0  0  0  0  0  0  0  0  0  0
  -15.8307   44.2440  -20.2696 N   0  0  0  0  0  0  0  0  0  0  0  0
  -16.1057   45.6064  -20.6303 C   0  0  0  0  0  0  0  0  0  0  0  0
  -15.2152   46.6164  -19.9663 C   0  0  0  0  0  0  0  0  0  0  0  0
  -14.5184   46.1180  -18.8727 O   0  0  0  0  0  0  0  0  0  0  0  0
  -13.7307   45.0670  -19.3936 C   0  0  0  0  0  0  0  0  0  0  0  0
  -14.6419   43.8922  -19.5552 C   0  0  0  0  0  0  0  0  0  0  0  0
  -16.3012   41.9534  -20.9905 C   0  0  0  0  0  0  0  0  0  0  0  0
  -17.1703   40.9374  -21.3348 C   0  0  0  0  0  0  0  0  0  0  0  0
  -17.0553   39.6714  -21.7184 N   0  0  0  0  0  0  0  0  0  0  0  0
  -18.2902   39.1062  -21.9393 C   0  0  0  0  0  0  0  0  0  0  0  0
  -18.4255   37.6992  -22.2879 C   0  0  0  0  0  0  0  0  0  0  0  0
  -19.5670   37.1087  -22.7396 C   0  0  0  0  0  0  0  0  0  0  0  0
  -20.6206   37.8688  -23.2593 N   0  0  0  0  0  0  0  0  0  0  0  0
  -20.8907   37.9038  -24.6794 C   0  0  0  0  0  0  0  0  0  0  0  0
  -20.6846   39.2778  -25.2738 C   0  0  1  0  0  0  0  0  0  0  0  0
  -19.4269   39.7335  -24.8438 O   0  0  0  0  0  0  0  0  0  0  0  0
  -20.7372   39.1827  -26.7393 C   0  0  0  0  0  0  0  0  0  0  0  0
  -20.3163   40.2337  -27.5244 C   0  0  0  0  0  0  0  0  0  0  0  0
  -20.3635   40.1501  -28.9164 C   0  0  0  0  0  0  0  0  0  0  0  0
  -20.8347   39.0083  -29.5279 C   0  0  0  0  0  0  0  0  0  0  0  0
  -21.2577   37.9524  -28.7565 C   0  0  0  0  0  0  0  0  0  0  0  0
  -21.8537   36.5083  -29.5474 Cl  0  0  0  0  0  0  0  0  0  0  0  0
  -21.2006   38.0603  -27.3653 C   0  0  0  0  0  0  0  0  0  0  0  0
  -19.6958   35.7184  -22.8953 C   0  0  0  0  0  0  0  0  0  0  0  0
  -18.6102   34.9430  -22.5773 C   0  0  0  0  0  0  0  0  0  0  0  0
  -17.4722   35.5067  -22.1352 N   0  0  0  0  0  0  0  0  0  0  0  0
  -17.3505   36.8306  -21.9849 C   0  0  0  0  0  0  0  0  0  0  0  0
  -16.2745   37.3526  -21.5685 O   0  0  0  0  0  0  0  0  0  0  0  0
  -19.1423   40.0773  -21.6727 N   0  0  0  0  0  0  0  0  0  0  0  0
  -18.5087   41.2378  -21.2940 C   0  0  0  0  0  0  0  0  0  0  0  0
  1  2  1  0
  2  3  2  0
  3  4  1  0
  4  5  1  0
  5  6  1  0
  6  7  1  0
  7  8  1  0
  8  9  1  0
  9 10  1  0
  4 11  2  0
 11 12  1  0
 12 13  1  0
 13 14  2  0
 14 15  1  0
 15 16  2  0
 16 17  1  0
 17 18  1  0
 18 19  1  0
 19 20  1  6
 19 21  1  0
 21 22  2  0
 22 23  1  0
 23 24  2  0
 24 25  1  0
 25 26  1  0
 25 27  2  0
 16 28  1  0
 28 29  2  0
 29 30  1  0
 30 31  1  0
 31 32  2  0
 14 33  1  0
 33 34  1  0
 34  2  1  0
 10  5  1  0
 34 12  2  0
 31 15  1  0
 27 21  1  0
M  END
$$$$
