
     RDKit          3D

 22 22  0  0  0  0  0  0  0  0999 V2000
  -18.9837   17.4655  -31.7159 Br  0  0  0  0  0  0  0  0  0  0  0  0
  -23.3228   23.2381  -31.9745 C   0  0  0  0  0  0  0  0  0  0  0  0
  -22.0081   23.4368  -31.5370 O   0  0  0  0  0  0  0  0  0  0  0  0
  -21.0705   22.4230  -31.5326 C   0  0  0  0  0  0  0  0  0  0  0  0
  -21.3666   21.1457  -31.9594 C   0  0  0  0  0  0  0  0  0  0  0  0
  -20.4417   20.1482  -31.9544 C   0  0  0  0  0  0  0  0  0  0  0  0
  -19.1458   20.4053  -31.5068 C   0  0  0  0  0  0  0  0  0  0  0  0
  -18.1599   19.3333  -31.5038 C   0  0  0  0  0  0  0  0  0  0  0  0
  -16.8784   19.5356  -31.0750 C   0  0  0  0  0  0  0  0  0  0  0  0
  -16.0139   18.4358  -31.1149 C   0  0  0  0  0  0  0  0  0  0  0  0
  -16.4880   17.2219  -31.5769 C   0  0  0  0  0  0  0  0  0  0  0  0
  -15.7165   16.2004  -31.6232 N   0  0  0  0  0  0  0  0  0  0  0  0
  -17.7559   17.0560  -31.9920 N   0  0  0  0  0  0  0  0  0  0  0  0
  -18.1808   15.7783  -32.4566 C   0  0  0  0  0  0  0  0  0  0  0  0
  -18.7373   14.8791  -31.3991 C   0  0  0  0  0  0  0  0  0  0  0  0
  -19.1320   13.5696  -32.0945 C   0  0  0  0  0  0  0  0  0  0  0  0
  -19.6988   12.6082  -31.1173 C   0  0  0  0  0  0  0  0  0  0  0  0
  -19.8311   12.8444  -29.8994 O   0  0  0  0  0  0  0  0  0  0  0  0
  -20.1020   11.3790  -31.5939 O   0  0  0  0  0  0  0  0  0  0  0  0
  -18.5544   18.1055  -31.9462 N   0  0  0  0  0  0  0  0  0  0  0  0
  -18.8450   21.6760  -31.0804 C   0  0  0  0  0  0  0  0  0  0  0  0
  -19.7885   22.7088  -31.0814 C   0  0  0  0  0  0  0  0  0  0  0  0
  2  3  1  0
  3  4  1  0
  4  5  2  0
  5  6  1  0
  6  7  2  0
  7  8  1  0
  8  9  1  0
  9 10  2  0
 10 11  1  0
 11 12  2  0
 11 13  1  0
 13 14  1  0
 14 15  1  0
 15 16  1  0
 16 17  1  0
 17 18  2  0
 17 19  1  0
 13 20  1  0
  7 21  1  0
 21 22  2  0
 22  4  1  0
 20  8  2  0
M  END
$$$$
