
     RDKit          3D

 21 22  0  0  0  0  0  0  0  0999 V2000
  -20.1699   49.3361  -13.5909 N   0  0  0  0  0  0  0  0  0  0  0  0
  -21.2896   48.0777  -13.9610 S   0  0  0  0  0  6  0  0  0  0  0  0
  -22.6576   48.6528  -14.0760 O   0  0  0  0  0  0  0  0  0  0  0  0
  -21.2707   46.9878  -12.9313 O   0  0  0  0  0  0  0  0  0  0  0  0
  -20.8365   47.4263  -15.5254 C   0  0  0  0  0  0  0  0  0  0  0  0
  -19.5462   46.9987  -15.7349 C   0  0  0  0  0  0  0  0  0  0  0  0
  -19.1253   46.4781  -16.9367 C   0  0  0  0  0  0  0  0  0  0  0  0
  -20.0119   46.3663  -17.9997 C   0  0  0  0  0  0  0  0  0  0  0  0
  -19.6191   45.8361  -19.2531 N   0  0  0  0  0  0  0  0  0  0  0  0
  -18.4630   44.9687  -19.2685 C   0  0  0  0  0  0  0  0  0  0  0  0
  -17.8128   44.8584  -18.2028 O   0  0  0  0  0  0  0  0  0  0  0  0
  -18.0852   44.2776  -20.4339 N   0  0  0  0  0  0  0  0  0  0  0  0
  -16.8290   43.6901  -20.6715 C   0  0  0  0  0  0  0  0  0  0  0  0
  -15.9883   44.0111  -21.6898 C   0  0  0  0  0  0  0  0  0  0  0  0
  -14.7549   43.3639  -21.8386 C   0  0  0  0  0  0  0  0  0  0  0  0
  -14.3576   42.3900  -20.9658 C   0  0  0  0  0  0  0  0  0  0  0  0
  -13.1453   41.7677  -21.1287 F   0  0  0  0  0  0  0  0  0  0  0  0
  -15.1955   42.0561  -19.9340 C   0  0  0  0  0  0  0  0  0  0  0  0
  -16.3955   42.6955  -19.8010 C   0  0  0  0  0  0  0  0  0  0  0  0
  -21.3052   46.7976  -17.7816 C   0  0  0  0  0  0  0  0  0  0  0  0
  -21.7127   47.3162  -16.5746 C   0  0  0  0  0  0  0  0  0  0  0  0
  1  2  1  0
  2  3  2  0
  2  4  2  0
  2  5  1  0
  5  6  2  0
  6  7  1  0
  7  8  2  0
  8  9  1  0
  9 10  1  0
 10 11  2  0
 10 12  1  0
 12 13  1  0
 13 14  2  0
 14 15  1  0
 15 16  2  0
 16 17  1  0
 16 18  1  0
 18 19  2  0
  8 20  1  0
 20 21  2  0
 21  5  1  0
 19 13  1  0
M  END
$$$$
