
     RDKit          3D

 35 38  0  0  0  0  0  0  0  0999 V2000
  -21.2592   32.6919  -22.3734 C   0  0  0  0  0  0  0  0  0  0  0  0
  -20.1515   33.1404  -21.4556 C   0  0  0  0  0  0  0  0  0  0  0  0
  -19.8074   34.5306  -21.5941 N   0  0  0  0  0  0  0  0  0  0  0  0
  -18.8665   35.2088  -20.7534 C   0  0  0  0  0  0  0  0  0  0  0  0
  -18.2508   34.5496  -19.8988 O   0  0  0  0  0  0  0  0  0  0  0  0
  -18.6829   36.6436  -20.9424 C   0  0  0  0  0  0  0  0  0  0  0  0
  -18.5128   37.8249  -21.0904 C   0  0  0  0  0  0  0  0  0  0  0  0
  -18.3236   39.2494  -21.2609 C   0  0  0  0  0  0  0  0  0  0  0  0
  -17.5298   40.0044  -20.4813 C   0  0  0  0  0  0  0  0  0  0  0  0
  -17.4539   41.3966  -20.6551 C   0  0  0  0  0  0  0  0  0  0  0  0
  -18.1901   42.0287  -21.6247 C   0  0  0  0  0  0  0  0  0  0  0  0
  -19.0222   41.2692  -22.4564 C   0  0  0  0  0  0  0  0  0  0  0  0
  -19.0595   39.9117  -22.2451 C   0  0  0  0  0  0  0  0  0  0  0  0
  -19.7025   42.1073  -23.3898 N   0  0  0  0  0  0  0  0  0  0  0  0
  -19.2764   43.4343  -23.1133 C   0  0  0  0  0  0  0  0  0  0  0  0
  -19.6752   44.4360  -23.7449 O   0  0  0  0  0  0  0  0  0  0  0  0
  -18.3296   43.4556  -22.0128 C   0  0  0  0  0  0  0  0  0  0  0  0
  -17.8120   44.5188  -21.4220 C   0  0  0  0  0  0  0  0  0  0  0  0
  -18.6136   45.6209  -21.0795 N   0  0  0  0  0  0  0  0  0  0  0  0
  -18.3788   46.9780  -20.9566 C   0  0  0  0  0  0  0  0  0  0  0  0
  -18.2529   47.4799  -19.6587 C   0  0  0  0  0  0  0  0  0  0  0  0
  -17.9942   48.7955  -19.4134 C   0  0  0  0  0  0  0  0  0  0  0  0
  -17.8485   49.6666  -20.4689 C   0  0  0  0  0  0  0  0  0  0  0  0
  -17.5852   51.0789  -20.1276 C   0  0  0  0  0  0  0  0  0  0  0  0
  -18.6424   51.9799  -20.4428 N   0  0  0  0  0  0  0  0  0  0  0  0
  -18.2803   53.3566  -20.4129 C   0  0  0  0  0  0  0  0  0  0  0  0
  -19.9061   51.7469  -19.8570 C   0  0  0  0  0  0  0  0  0  0  0  0
  -17.9692   49.1826  -21.7479 C   0  0  0  0  0  0  0  0  0  0  0  0
  -18.2393   47.8284  -22.0119 C   0  0  0  0  0  0  0  0  0  0  0  0
  -16.4535   44.4804  -20.9500 C   0  0  0  0  0  0  0  0  0  0  0  0
  -16.0067   44.6253  -19.6661 C   0  0  0  0  0  0  0  0  0  0  0  0
  -14.6551   44.4777  -19.3210 C   0  0  0  0  0  0  0  0  0  0  0  0
  -13.7346   44.1837  -20.2724 C   0  0  0  0  0  0  0  0  0  0  0  0
  -14.1449   44.0269  -21.6012 C   0  0  0  0  0  0  0  0  0  0  0  0
  -15.4720   44.1731  -21.9205 C   0  0  0  0  0  0  0  0  0  0  0  0
  1  2  1  0
  2  3  1  0
  3  4  1  0
  4  5  2  0
  4  6  1  0
  6  7  3  0
  7  8  1  0
  8  9  2  0
  9 10  1  0
 10 11  2  0
 11 12  1  0
 12 13  2  0
 12 14  1  0
 14 15  1  0
 15 16  2  0
 15 17  1  0
 17 18  2  0
 18 19  1  0
 19 20  1  0
 20 21  2  0
 21 22  1  0
 22 23  2  0
 23 24  1  0
 24 25  1  0
 25 26  1  0
 25 27  1  0
 23 28  1  0
 28 29  2  0
 18 30  1  0
 30 31  2  0
 31 32  1  0
 32 33  2  0
 33 34  1  0
 34 35  2  0
 13  8  1  0
 29 20  1  0
 35 30  1  0
 17 11  1  0
M  END
$$$$
