
     RDKit          3D

 24 27  0  0  0  0  0  0  0  0999 V2000
  -17.8505   37.0985  -19.1727 O   0  0  0  0  0  0  0  0  0  0  0  0
  -17.8876   37.7091  -20.2818 C   0  0  0  0  0  0  0  0  0  0  0  0
  -17.6578   39.0250  -20.4011 N   0  0  0  0  0  0  0  0  0  0  0  0
  -17.6992   39.6632  -21.5789 C   0  0  0  0  0  0  0  0  0  0  0  0
  -17.4536   41.0216  -21.6409 O   0  0  0  0  0  0  0  0  0  0  0  0
  -18.0538   41.7552  -22.6508 C   0  0  0  0  0  0  0  0  0  0  0  0
  -18.9613   42.7789  -22.4302 C   0  0  0  0  0  0  0  0  0  0  0  0
  -19.3174   43.2452  -23.6615 N   0  0  0  0  0  0  0  0  0  0  0  0
  -18.6777   42.5612  -24.5896 N   0  0  0  0  0  0  0  0  0  0  0  0
  -18.8264   42.8002  -26.0113 C   0  0  0  0  0  0  0  0  0  0  0  0
  -19.9396   42.0507  -26.6058 C   0  0  0  0  0  0  0  0  0  0  0  0
  -21.0714   42.7338  -27.0397 C   0  0  0  0  0  0  0  0  0  0  0  0
  -22.1261   42.0456  -27.6003 C   0  0  0  0  0  0  0  0  0  0  0  0
  -22.0729   40.6596  -27.7396 C   0  0  0  0  0  0  0  0  0  0  0  0
  -20.9549   39.9729  -27.3123 C   0  0  0  0  0  0  0  0  0  0  0  0
  -19.9126   40.6938  -26.7534 C   0  0  0  0  0  0  0  0  0  0  0  0
  -17.8913   41.6367  -24.0160 C   0  0  0  0  0  0  0  0  0  0  0  0
  -17.9832   38.9477  -22.6796 N   0  0  0  0  0  0  0  0  0  0  0  0
  -18.2179   37.6340  -22.5985 C   0  0  0  0  0  0  0  0  0  0  0  0
  -18.5149   36.8614  -23.7161 C   0  0  0  0  0  0  0  0  0  0  0  0
  -18.7528   35.5393  -23.6477 N   0  0  0  0  0  0  0  0  0  0  0  0
  -18.7124   34.8972  -22.4712 C   0  0  0  0  0  0  0  0  0  0  0  0
  -18.4254   35.5849  -21.3106 C   0  0  0  0  0  0  0  0  0  0  0  0
  -18.1808   36.9536  -21.3947 C   0  0  0  0  0  0  0  0  0  0  0  0
  1  2  2  0
  2  3  1  0
  3  4  2  0
  4  5  1  0
  5  6  1  0
  6  7  1  0
  7  8  2  0
  8  9  1  0
  9 10  1  0
 10 11  1  0
 11 12  2  0
 12 13  1  0
 13 14  2  0
 14 15  1  0
 15 16  2  0
  9 17  1  0
  4 18  1  0
 18 19  1  0
 19 20  2  0
 20 21  1  0
 21 22  2  0
 22 23  1  0
 23 24  2  0
 24  2  1  0
 17  6  2  0
 24 19  1  0
 16 11  1  0
M  END
$$$$
