
     RDKit          3D

 25 26  0  0  0  0  0  0  0  0999 V2000
  -15.9869   44.6017  -18.3257 C   0  0  0  0  0  0  0  0  0  0  0  0
  -15.9569   44.5491  -19.7158 O   0  0  0  0  0  0  0  0  0  0  0  0
  -16.5259   43.5258  -20.4751 C   0  0  0  0  0  0  0  0  0  0  0  0
  -16.8558   42.3274  -19.8776 C   0  0  0  0  0  0  0  0  0  0  0  0
  -17.4206   41.2866  -20.5870 C   0  0  0  0  0  0  0  0  0  0  0  0
  -17.6879   41.3977  -21.9572 C   0  0  0  0  0  0  0  0  0  0  0  0
  -18.2770   40.2746  -22.7107 C   0  0  0  0  0  0  0  0  0  0  0  0
  -18.1764   38.9301  -21.9789 C   0  0  0  0  0  0  0  0  0  0  0  0
  -19.0689   38.8786  -20.8030 C   0  0  0  0  0  0  0  0  0  0  0  0
  -18.4015   37.9535  -22.9640 N   0  0  0  0  0  0  0  0  0  0  0  0
  -19.5291   37.8942  -23.7738 C   0  0  0  0  0  0  0  0  0  0  0  0
  -19.8395   36.5457  -24.3087 C   0  0  0  0  0  0  0  0  0  0  0  0
  -18.7752   36.0847  -25.1387 O   0  0  0  0  0  0  0  0  0  0  0  0
  -19.9106   35.5077  -23.1989 C   0  0  0  0  0  0  0  0  0  0  0  0
  -21.0640   35.2636  -22.5318 C   0  0  0  0  0  0  0  0  0  0  0  0
  -21.0597   34.2860  -21.5166 C   0  0  0  0  0  0  0  0  0  0  0  0
  -19.9194   33.5940  -21.2043 C   0  0  0  0  0  0  0  0  0  0  0  0
  -19.9035   32.6295  -20.2074 O   0  0  0  0  0  0  0  0  0  0  0  0
  -18.7501   33.8551  -21.8944 C   0  0  0  0  0  0  0  0  0  0  0  0
  -17.5797   33.1399  -21.5588 N   0  0  0  0  0  0  0  0  0  0  0  0
  -16.3585   33.4311  -22.2151 C   0  0  0  0  0  0  0  0  0  0  0  0
  -15.2435   33.1189  -21.7005 O   0  0  0  0  0  0  0  0  0  0  0  0
  -18.7640   34.8067  -22.8797 C   0  0  0  0  0  0  0  0  0  0  0  0
  -17.3578   42.5906  -22.5477 C   0  0  0  0  0  0  0  0  0  0  0  0
  -16.7845   43.6465  -21.8248 C   0  0  0  0  0  0  0  0  0  0  0  0
  1  2  1  0
  2  3  1  0
  3  4  2  0
  4  5  1  0
  5  6  2  0
  6  7  1  0
  7  8  1  0
  8  9  1  0
  8 10  1  0
 10 11  1  0
 11 12  1  0
 12 13  1  0
 12 14  1  0
 14 15  2  0
 15 16  1  0
 16 17  2  0
 17 18  1  0
 17 19  1  0
 19 20  1  0
 20 21  1  0
 21 22  2  0
 19 23  2  0
  6 24  1  0
 24 25  2  0
 25  3  1  0
 23 14  1  0
M  END
$$$$
