
     RDKit          3D

 12 12  0  0  0  0  0  0  0  0999 V2000
  -16.2630   38.6002  -23.5041 Cl  0  0  0  0  0  0  0  0  0  0  0  0
  -17.1253   38.4781  -21.9539 C   0  0  1  0  0  0  0  0  0  0  0  0
  -18.1134   39.6278  -21.8360 C   0  0  2  0  0  0  0  0  0  0  0  0
  -19.1324   39.3666  -20.4185 Cl  0  0  0  0  0  0  0  0  0  0  0  0
  -18.9328   39.6328  -23.1036 C   0  0  2  0  0  0  0  0  0  0  0  0
  -20.1138   40.9523  -23.0683 Cl  0  0  0  0  0  0  0  0  0  0  0  0
  -19.6535   38.3400  -23.3162 C   0  0  1  0  0  0  0  0  0  0  0  0
  -20.2952   38.3216  -24.9777 Cl  0  0  0  0  0  0  0  0  0  0  0  0
  -18.7836   37.1265  -23.1549 C   0  0  2  0  0  0  0  0  0  0  0  0
  -19.8788   35.7225  -22.9395 Cl  0  0  0  0  0  0  0  0  0  0  0  0
  -17.9157   37.1950  -21.9301 C   0  0  1  0  0  0  0  0  0  0  0  0
  -16.8294   35.7814  -21.9340 Cl  0  0  0  0  0  0  0  0  0  0  0  0
  2  1  1  6
  2  3  1  0
  3  4  1  1
  3  5  1  0
  5  6  1  1
  5  7  1  0
  7  8  1  6
  7  9  1  0
  9 10  1  1
  9 11  1  0
 11 12  1  6
 11  2  1  0
M  END
$$$$
