
     RDKit          3D

 35 38  0  0  0  0  0  0  0  0999 V2000
  -17.8254   -4.6340  -37.0968 C   0  0  0  0  0  0  0  0  0  0  0  0
  -18.2559   -3.6936  -36.1379 N   0  0  0  0  0  0  0  0  0  0  0  0
  -17.8725   -2.3463  -36.1325 C   0  0  0  0  0  0  0  0  0  0  0  0
  -18.9178   -1.4579  -36.5608 C   0  0  0  0  0  0  0  0  0  0  0  0
  -18.6064   -0.1437  -36.7801 C   0  0  0  0  0  0  0  0  0  0  0  0
  -17.3457    0.2760  -36.5974 C   0  0  0  0  0  0  0  0  0  0  0  0
  -16.3315   -0.5672  -36.1844 C   0  0  0  0  0  0  0  0  0  0  0  0
  -16.6147   -1.9034  -35.9467 C   0  0  0  0  0  0  0  0  0  0  0  0
  -15.5220   -2.8055  -35.3949 C   0  0  0  0  0  0  0  0  0  0  0  0
  -14.7372   -2.2591  -34.4054 N   0  0  0  0  0  0  0  0  0  0  0  0
  -13.9475   -1.6986  -33.4133 C   0  0  0  0  0  0  0  0  0  0  0  0
  -14.4144   -0.8336  -32.4382 N   0  0  0  0  0  0  0  0  0  0  0  0
  -13.6782   -0.3633  -31.4480 C   0  0  0  0  0  0  0  0  0  0  0  0
  -14.1792    0.5526  -30.4511 N   0  0  0  0  0  0  0  0  0  0  0  0
  -15.4874    1.0644  -30.6443 C   0  0  0  0  0  0  0  0  0  0  0  0
  -15.9419    1.9396  -29.6743 C   0  0  0  0  0  0  0  0  0  0  0  0
  -17.1311    2.5521  -29.9330 C   0  0  0  0  0  0  0  0  0  0  0  0
  -17.8866    2.3502  -31.0922 C   0  0  0  0  0  0  0  0  0  0  0  0
  -17.3969    1.4786  -32.0169 C   0  0  0  0  0  0  0  0  0  0  0  0
  -16.2107    0.8442  -31.7822 C   0  0  0  0  0  0  0  0  0  0  0  0
  -18.3435    1.3645  -33.1706 C   0  0  0  0  0  0  0  0  0  0  0  0
  -19.3826    2.3430  -32.8429 C   0  0  0  0  0  0  0  0  0  0  0  0
  -20.3818    2.6929  -33.5325 O   0  0  0  0  0  0  0  0  0  0  0  0
  -19.1203    2.9064  -31.5658 N   0  0  0  0  0  0  0  0  0  0  0  0
  -12.4041   -0.7442  -31.3741 N   0  0  0  0  0  0  0  0  0  0  0  0
  -11.8203   -1.5534  -32.2238 C   0  0  0  0  0  0  0  0  0  0  0  0
  -12.6264   -2.0427  -33.2712 C   0  0  0  0  0  0  0  0  0  0  0  0
  -11.9989   -2.9566  -34.2607 C   0  0  0  0  0  0  0  0  0  0  0  0
  -12.4016   -4.2766  -33.8748 F   0  0  0  0  0  0  0  0  0  0  0  0
  -10.6394   -2.9876  -34.1646 F   0  0  0  0  0  0  0  0  0  0  0  0
  -12.4832   -2.8237  -35.5013 F   0  0  0  0  0  0  0  0  0  0  0  0
  -19.3031   -4.2081  -34.8686 S   0  0  0  0  0  6  0  0  0  0  0  0
  -18.7033   -3.7459  -33.2648 C   0  0  0  0  0  0  0  0  0  0  0  0
  -19.5456   -5.7413  -34.9194 O   0  0  0  0  0  0  0  0  0  0  0  0
  -20.6585   -3.6116  -35.0814 O   0  0  0  0  0  0  0  0  0  0  0  0
  1  2  1  0
  2  3  1  0
  3  4  2  0
  4  5  1  0
  5  6  2  0
  6  7  1  0
  7  8  2  0
  8  9  1  0
  9 10  1  0
 10 11  1  0
 11 12  2  0
 12 13  1  0
 13 14  1  0
 14 15  1  0
 15 16  2  0
 16 17  1  0
 17 18  2  0
 18 19  1  0
 19 20  2  0
 19 21  1  0
 21 22  1  0
 22 23  2  0
 22 24  1  0
 13 25  2  0
 25 26  1  0
 26 27  2  0
 27 28  1  0
 28 29  1  0
 28 30  1  0
 28 31  1  0
  2 32  1  0
 32 33  1  0
 32 34  2  0
 32 35  2  0
  8  3  1  0
 27 11  1  0
 20 15  1  0
 24 18  1  0
M  END
$$$$
