
     RDKit          3D

 37 41  0  0  0  0  0  0  0  0999 V2000
  -26.3830   22.3062  -32.8942 O   0  0  0  0  0  0  0  0  0  0  0  0
  -26.4578   23.2460  -32.0653 C   0  0  0  0  0  0  0  0  0  0  0  0
  -25.6058   23.1734  -30.9246 N   0  0  0  0  0  0  0  0  0  0  0  0
  -24.5227   22.2752  -30.8331 C   0  0  0  0  0  0  0  0  0  0  0  0
  -24.3630   21.2869  -31.7744 C   0  0  0  0  0  0  0  0  0  0  0  0
  -23.2926   20.3808  -31.6947 C   0  0  0  0  0  0  0  0  0  0  0  0
  -23.1412   19.3869  -32.6510 O   0  0  0  0  0  0  0  0  0  0  0  0
  -22.0328   18.5924  -32.7069 C   0  0  0  0  0  0  0  0  0  0  0  0
  -20.8068   19.0757  -33.1590 C   0  0  0  0  0  0  0  0  0  0  0  0
  -19.7139   18.2361  -33.1973 C   0  0  0  0  0  0  0  0  0  0  0  0
  -18.5101   18.6799  -33.6330 F   0  0  0  0  0  0  0  0  0  0  0  0
  -19.7847   16.9180  -32.8007 C   0  0  0  0  0  0  0  0  0  0  0  0
  -18.6251   16.0630  -32.8409 N   0  0  0  0  0  0  0  0  0  0  0  0
  -18.6727   14.6750  -32.6688 C   0  0  0  0  0  0  0  0  0  0  0  0
  -19.8500   14.2245  -32.3526 O   0  0  0  0  0  0  0  0  0  0  0  0
  -17.5891   13.6869  -32.8077 C   0  0  0  0  0  0  0  0  0  0  0  0
  -16.5724   13.5775  -31.7320 C   0  0  0  0  0  0  0  0  0  0  0  0
  -15.4145   13.2308  -32.1245 O   0  0  0  0  0  0  0  0  0  0  0  0
  -16.7398   13.7982  -30.3655 N   0  0  0  0  0  0  0  0  0  0  0  0
  -15.7330   13.9583  -29.3718 C   0  0  0  0  0  0  0  0  0  0  0  0
  -14.4836   13.3826  -29.6222 C   0  0  0  0  0  0  0  0  0  0  0  0
  -13.4333   13.4595  -28.7519 C   0  0  0  0  0  0  0  0  0  0  0  0
  -13.5738   14.1268  -27.5626 C   0  0  0  0  0  0  0  0  0  0  0  0
  -12.5340   14.1957  -26.7164 F   0  0  0  0  0  0  0  0  0  0  0  0
  -14.7833   14.7000  -27.2894 C   0  0  0  0  0  0  0  0  0  0  0  0
  -15.8523   14.6153  -28.1877 C   0  0  0  0  0  0  0  0  0  0  0  0
  -17.9247   12.4002  -33.5104 C   0  0  0  0  0  0  0  0  0  0  0  0
  -17.1394   13.4576  -34.2270 C   0  0  0  0  0  0  0  0  0  0  0  0
  -21.0025   16.4403  -32.3527 C   0  0  0  0  0  0  0  0  0  0  0  0
  -22.0984   17.2758  -32.3123 C   0  0  0  0  0  0  0  0  0  0  0  0
  -23.3035   16.7949  -31.8662 F   0  0  0  0  0  0  0  0  0  0  0  0
  -22.4118   20.5044  -30.6583 C   0  0  0  0  0  0  0  0  0  0  0  0
  -22.5920   21.5007  -29.7296 C   0  0  0  0  0  0  0  0  0  0  0  0
  -23.6294   22.3551  -29.8328 N   0  0  0  0  0  0  0  0  0  0  0  0
  -27.3983   24.3484  -32.3081 C   0  0  0  0  0  0  0  0  0  0  0  0
  -28.8204   24.0852  -32.6515 C   0  0  0  0  0  0  0  0  0  0  0  0
  -27.8983   24.4644  -33.7588 C   0  0  0  0  0  0  0  0  0  0  0  0
  1  2  2  0
  2  3  1  0
  3  4  1  0
  4  5  2  0
  5  6  1  0
  6  7  1  0
  7  8  1  0
  8  9  2  0
  9 10  1  0
 10 11  1  0
 10 12  2  0
 12 13  1  0
 13 14  1  0
 14 15  2  0
 14 16  1  0
 16 17  1  0
 17 18  2  0
 17 19  1  0
 19 20  1  0
 20 21  2  0
 21 22  1  0
 22 23  2  0
 23 24  1  0
 23 25  1  0
 25 26  2  0
 16 27  1  0
 27 28  1  0
 12 29  1  0
 29 30  2  0
 30 31  1  0
  6 32  2  0
 32 33  1  0
 33 34  2  0
  2 35  1  0
 35 36  1  0
 36 37  1  0
 34  4  1  0
 37 35  1  0
 30  8  1  0
 28 16  1  0
 26 20  1  0
M  END
$$$$
