
     RDKit          3D

 42 43  0  0  0  0  0  0  0  0999 V2000
  -17.5226   33.6812  -22.2425 C   0  0  0  0  0  0  0  0  0  0  0  0
  -18.3667   34.4657  -21.6306 C   0  0  0  0  0  0  0  0  0  0  0  0
  -19.7040   34.8129  -22.2417 C   0  0  0  0  0  0  0  0  0  0  0  0
  -19.6248   36.0024  -23.0254 N   0  0  0  0  0  0  0  0  0  0  0  0
  -18.9061   37.1838  -22.5946 C   0  0  0  0  0  0  0  0  0  0  0  0
  -18.5284   38.1472  -23.4930 C   0  0  0  0  0  0  0  0  0  0  0  0
  -18.9379   37.7561  -24.8537 C   0  0  0  0  0  0  0  0  0  0  0  0
  -20.0870   38.3343  -25.5431 C   0  0  1  0  0  0  0  0  0  0  0  0
  -21.3455   37.4727  -25.5078 C   0  0  0  0  0  0  0  0  0  0  0  0
  -20.5399   39.7152  -25.2976 C   0  0  0  0  0  0  0  0  0  0  0  0
  -21.1988   40.2299  -26.5760 C   0  0  2  0  0  0  0  0  0  0  0  0
  -20.4051   40.0875  -27.6875 O   0  0  0  0  0  0  0  0  0  0  0  0
  -20.0648   41.2277  -28.3534 C   0  0  0  0  0  0  0  0  0  0  0  0
  -21.5406   41.6767  -26.4264 C   0  0  2  0  0  0  0  0  0  0  0  0
  -22.7442   41.9855  -27.0753 O   0  0  0  0  0  0  0  0  0  0  0  0
  -20.4364   42.5843  -26.7920 C   0  0  1  0  0  0  0  0  0  0  0  0
  -20.4300   42.6009  -28.3335 C   0  0  0  0  0  0  0  0  0  0  0  0
  -20.4864   43.9957  -26.2320 C   0  0  0  0  0  0  0  0  0  0  0  0
  -20.5647   44.6242  -25.1086 C   0  0  0  0  0  0  0  0  0  0  0  0
  -20.5982   46.1488  -24.8647 C   0  0  0  0  0  0  0  0  0  0  0  0
  -20.6399   44.1356  -23.6605 C   0  0  2  0  0  0  0  0  0  0  0  0
  -20.5452   45.1942  -22.7150 O   0  0  0  0  0  0  0  0  0  0  0  0
  -21.5225   46.1191  -22.4637 C   0  0  0  0  0  0  0  0  0  0  0  0
  -22.8189   45.7933  -21.9774 N   0  0  0  0  0  0  0  0  0  0  0  0
  -21.2558   47.3273  -22.6762 O   0  0  0  0  0  0  0  0  0  0  0  0
  -19.5886   43.1636  -23.1920 C   0  0  1  0  0  0  0  0  0  0  0  0
  -18.5862   43.7751  -22.5364 O   0  0  0  0  0  0  0  0  0  0  0  0
  -18.7975   45.0314  -22.0506 C   0  0  0  0  0  0  0  0  0  0  0  0
  -20.3276   42.0900  -22.4861 C   0  0  0  0  0  0  0  0  0  0  0  0
  -20.1320   41.8528  -21.1763 C   0  0  0  0  0  0  0  0  0  0  0  0
  -19.2096   42.5640  -20.2904 C   0  0  0  0  0  0  0  0  0  0  0  0
  -17.9198   42.6245  -20.0144 C   0  0  0  0  0  0  0  0  0  0  0  0
  -17.2248   43.5459  -18.9747 C   0  0  0  0  0  0  0  0  0  0  0  0
  -16.7768   41.7896  -20.5634 C   0  0  0  0  0  0  0  0  0  0  0  0
  -15.6616   42.4107  -20.8674 O   0  0  0  0  0  0  0  0  0  0  0  0
  -16.6840   40.3824  -20.8227 N   0  0  0  0  0  0  0  0  0  0  0  0
  -17.4428   39.4262  -21.5721 C   0  0  0  0  0  0  0  0  0  0  0  0
  -17.8697   38.4063  -20.7573 C   0  0  0  0  0  0  0  0  0  0  0  0
  -18.6042   37.2524  -21.1782 C   0  0  0  0  0  0  0  0  0  0  0  0
  -18.9689   36.3503  -20.3724 O   0  0  0  0  0  0  0  0  0  0  0  0
  -17.7792   39.3090  -22.9943 C   0  0  0  0  0  0  0  0  0  0  0  0
  -17.4075   40.2670  -23.8630 O   0  0  0  0  0  0  0  0  0  0  0  0
  1  2  2  0
  2  3  1  0
  3  4  1  0
  4  5  1  0
  5  6  2  0
  6  7  1  0
  7  8  1  0
  8  9  1  1
  8 10  1  0
 10 11  1  0
 11 12  1  6
 12 13  1  0
 11 14  1  0
 14 15  1  6
 14 16  1  0
 16 17  1  6
 16 18  1  0
 18 19  2  0
 19 20  1  0
 19 21  1  0
 21 22  1  1
 22 23  1  0
 23 24  1  0
 23 25  2  0
 21 26  1  0
 26 27  1  1
 27 28  1  0
 26 29  1  0
 29 30  2  0
 30 31  1  0
 31 32  2  0
 32 33  1  0
 32 34  1  0
 34 35  2  0
 34 36  1  0
 36 37  1  0
 37 38  2  0
 38 39  1  0
 39 40  2  0
 37 41  1  0
 41 42  2  0
 39  5  1  0
 41  6  1  0
M  END
$$$$
