
     RDKit          3D

 42 47  0  0  0  0  0  0  0  0999 V2000
  -29.8719   20.0295  -28.0088 C   0  0  0  0  0  0  0  0  0  0  0  0
  -29.0331   19.4023  -29.0859 C   0  0  0  0  0  0  0  0  0  0  0  0
  -28.0212   20.2236  -29.6844 C   0  0  0  0  0  0  0  0  0  0  0  0
  -28.2112   21.4977  -30.1191 N   0  0  0  0  0  0  0  0  0  0  0  0
  -27.1518   21.9543  -30.6956 C   0  0  0  0  0  0  0  0  0  0  0  0
  -26.9268   23.2047  -31.3176 C   0  0  0  0  0  0  0  0  0  0  0  0
  -27.9713   24.2509  -31.2130 C   0  0  0  0  0  0  0  0  0  0  0  0
  -25.7627   23.3672  -31.8846 C   0  0  0  0  0  0  0  0  0  0  0  0
  -24.7104   22.4509  -31.9534 C   0  0  0  0  0  0  0  0  0  0  0  0
  -23.5280   22.6366  -32.6537 N   0  0  0  0  0  0  0  0  0  0  0  0
  -22.5523   23.6713  -32.4298 C   0  0  0  0  0  0  0  0  0  0  0  0
  -22.3614   24.5045  -33.7188 C   0  0  0  0  0  0  0  0  0  0  0  0
  -22.6852   23.7000  -34.8054 N   0  0  0  0  0  0  0  0  0  0  0  0
  -23.7913   23.7917  -35.6269 C   0  0  0  0  0  0  0  0  0  0  0  0
  -23.9694   24.8338  -36.6030 C   0  0  0  0  0  0  0  0  0  0  0  0
  -24.0500   26.0166  -36.5476 O   0  0  0  0  0  0  0  0  0  0  0  0
  -24.0445   24.3086  -38.0178 N   0  0  0  0  0  0  0  0  0  0  0  0
  -24.1291   24.8813  -39.3137 C   0  0  0  0  0  0  0  0  0  0  0  0
  -23.7819   23.5461  -39.9403 C   0  0  0  0  0  0  0  0  0  0  0  0
  -22.4518   23.5048  -40.3016 O   0  0  0  0  0  0  0  0  0  0  0  0
  -24.1373   23.0024  -38.6044 C   0  0  0  0  0  0  0  0  0  0  0  0
  -22.1999   22.3252  -34.6550 C   0  0  0  0  0  0  0  0  0  0  0  0
  -23.1584   21.6578  -33.7074 C   0  0  0  0  0  0  0  0  0  0  0  0
  -25.0277   21.2338  -31.2775 C   0  0  0  0  0  0  0  0  0  0  0  0
  -26.1686   20.9985  -30.6880 N   0  0  0  0  0  0  0  0  0  0  0  0
  -26.6974   19.9093  -30.0509 C   0  0  0  0  0  0  0  0  0  0  0  0
  -26.0355   18.7850  -29.6198 N   0  0  0  0  0  0  0  0  0  0  0  0
  -25.7671   17.7134  -30.6751 C   0  0  0  0  0  0  0  0  0  0  0  0
  -25.5433   18.3916  -28.3229 C   0  0  0  0  0  0  0  0  0  0  0  0
  -24.8791   17.5442  -27.7505 N   0  0  0  0  0  0  0  0  0  0  0  0
  -24.8892   17.4640  -26.5256 C   0  0  0  0  0  0  0  0  0  0  0  0
  -24.3490   16.0765  -25.8974 C   0  0  0  0  0  0  0  0  0  0  0  0
  -24.1153   15.9987  -24.5918 C   0  0  0  0  0  0  0  0  0  0  0  0
  -23.4587   15.0894  -23.8884 C   0  0  0  0  0  0  0  0  0  0  0  0
  -22.9208   14.0118  -24.7118 C   0  0  0  0  0  0  0  0  0  0  0  0
  -22.1961   13.1177  -24.0404 F   0  0  0  0  0  0  0  0  0  0  0  0
  -23.1610   14.0686  -26.0438 C   0  0  0  0  0  0  0  0  0  0  0  0
  -23.8684   15.0657  -26.7202 C   0  0  0  0  0  0  0  0  0  0  0  0
  -25.3714   17.9892  -25.4490 C   0  0  0  0  0  0  0  0  0  0  0  0
  -25.9820   18.6350  -24.3404 C   0  0  0  0  0  0  0  0  0  0  0  0
  -26.4919   19.1607  -23.4407 N   0  0  0  0  0  0  0  0  0  0  0  0
  -26.3555   19.2999  -26.8831 S   0  0  0  0  0  0  0  0  0  0  0  0
  1  2  1  0
  2  3  1  0
  3  4  1  0
  4  5  2  0
  5  6  1  0
  6  7  1  0
  6  8  2  0
  8  9  1  0
  9 10  1  0
 10 11  1  0
 11 12  1  0
 12 13  1  0
 13 14  1  0
 14 15  1  0
 15 16  2  0
 15 17  1  0
 17 18  1  0
 18 19  1  0
 19 20  1  0
 19 21  1  0
 13 22  1  0
 22 23  1  0
  9 24  2  0
 24 25  1  0
 25 26  1  0
 26 27  1  0
 27 28  1  0
 27 29  1  0
 29 30  2  0
 30 31  1  0
 31 32  1  0
 32 33  2  0
 33 34  1  0
 34 35  2  0
 35 36  1  0
 35 37  1  0
 37 38  2  0
 31 39  2  0
 39 40  1  0
 40 41  3  0
 39 42  1  0
 26  3  2  0
 42 29  1  0
 25  5  1  0
 38 32  1  0
 23 10  1  0
 21 17  1  0
M  END
$$$$
