
     RDKit          3D

 28 29  0  0  0  0  0  0  0  0999 V2000
  -25.8745   19.9691  -30.9502 C   0  0  0  0  0  0  0  0  0  0  0  0
  -25.9064   18.6658  -30.2708 N   0  0  0  0  0  0  0  0  0  0  0  0
  -26.5070   18.5475  -29.0014 C   0  0  0  0  0  0  0  0  0  0  0  0
  -27.0216   19.6166  -28.5148 O   0  0  0  0  0  0  0  0  0  0  0  0
  -26.5560   17.2706  -28.2415 C   0  0  2  0  0  0  0  0  0  0  0  0
  -27.9479   16.9708  -27.7732 C   0  0  0  0  0  0  0  0  0  0  0  0
  -28.9481   16.8440  -28.8378 C   0  0  0  0  0  0  0  0  0  0  0  0
  -29.6547   17.8860  -29.4136 C   0  0  0  0  0  0  0  0  0  0  0  0
  -30.4904   17.4019  -30.3448 N   0  0  0  0  0  0  0  0  0  0  0  0
  -30.3502   16.0783  -30.3935 C   0  0  0  0  0  0  0  0  0  0  0  0
  -30.9785   15.1188  -31.1791 C   0  0  0  0  0  0  0  0  0  0  0  0
  -30.6239   13.7979  -31.0053 C   0  0  0  0  0  0  0  0  0  0  0  0
  -29.6685   13.4235  -30.0760 C   0  0  0  0  0  0  0  0  0  0  0  0
  -29.0403   14.3682  -29.2927 C   0  0  0  0  0  0  0  0  0  0  0  0
  -29.3887   15.6912  -29.4598 C   0  0  0  0  0  0  0  0  0  0  0  0
  -25.7557   17.5084  -27.0271 N   0  0  0  0  0  0  0  0  0  0  0  0
  -24.4567   16.9632  -26.9453 C   0  0  0  0  0  0  0  0  0  0  0  0
  -23.9450   16.2326  -27.8158 O   0  0  0  0  0  0  0  0  0  0  0  0
  -23.5860   17.2706  -25.7130 C   0  0  1  0  0  0  0  0  0  0  0  0
  -22.5784   16.2160  -25.6136 C   0  0  0  0  0  0  0  0  0  0  0  0
  -22.0553   15.9490  -24.2564 C   0  0  0  0  0  0  0  0  0  0  0  0
  -22.7487   15.9737  -23.2110 O   0  0  0  0  0  0  0  0  0  0  0  0
  -20.6753   15.6435  -24.1182 N   0  0  0  0  0  0  0  0  0  0  0  0
  -20.1518   15.5318  -22.8867 O   0  0  0  0  0  0  0  0  0  0  0  0
  -23.2156   18.6786  -25.9354 C   0  0  0  0  0  0  0  0  0  0  0  0
  -22.5128   19.1592  -27.1241 C   0  0  0  0  0  0  0  0  0  0  0  0
  -21.7403   20.4407  -26.6322 C   0  0  0  0  0  0  0  0  0  0  0  0
  -23.5329   19.7976  -28.1026 C   0  0  0  0  0  0  0  0  0  0  0  0
  1  2  1  0
  2  3  1  0
  3  4  2  0
  3  5  1  0
  5  6  1  1
  6  7  1  0
  7  8  2  0
  8  9  1  0
  9 10  1  0
 10 11  2  0
 11 12  1  0
 12 13  2  0
 13 14  1  0
 14 15  2  0
  5 16  1  0
 16 17  1  0
 17 18  2  0
 17 19  1  0
 19 20  1  6
 20 21  1  0
 21 22  2  0
 21 23  1  0
 23 24  1  0
 19 25  1  0
 25 26  1  0
 26 27  1  0
 26 28  1  0
 15  7  1  0
 15 10  1  0
M  END
$$$$
