
     RDKit          3D

 14 14  0  0  0  0  0  0  0  0999 V2000
  -17.7827   18.1405  -38.3702 C   0  0  0  0  0  0  0  0  0  0  0  0
  -16.4662   17.7783  -37.6681 C   0  0  0  0  0  0  0  0  0  0  0  0
  -16.5122   18.1978  -36.2345 C   0  0  0  0  0  0  0  0  0  0  0  0
  -15.5187   17.4414  -35.3624 C   0  0  0  0  0  0  0  0  0  0  0  0
  -15.5301   17.9006  -33.9510 C   0  0  0  0  0  0  0  0  0  0  0  0
  -14.6450   17.1597  -33.0162 C   0  0  0  0  0  0  0  0  0  0  0  0
  -15.2875   16.4627  -31.9065 C   0  0  0  0  0  0  0  0  0  0  0  0
  -15.4733   15.0789  -32.0310 C   0  0  0  0  0  0  0  0  0  0  0  0
  -16.0379   14.3313  -31.0413 C   0  0  0  0  0  0  0  0  0  0  0  0
  -16.4282   14.9903  -29.8924 C   0  0  0  0  0  0  0  0  0  0  0  0
  -17.0000   14.2313  -28.8895 O   0  0  0  0  0  0  0  0  0  0  0  0
  -16.2666   16.3460  -29.7252 C   0  0  0  0  0  0  0  0  0  0  0  0
  -15.6907   17.0770  -30.7485 C   0  0  0  0  0  0  0  0  0  0  0  0
  -15.5338   18.4669  -30.5681 O   0  0  0  0  0  0  0  0  0  0  0  0
  1  2  1  0
  2  3  1  0
  3  4  1  0
  4  5  1  0
  5  6  1  0
  6  7  1  0
  7  8  2  0
  8  9  1  0
  9 10  2  0
 10 11  1  0
 10 12  1  0
 12 13  2  0
 13 14  1  0
 13  7  1  0
M  END
$$$$
