
     RDKit          3D

 29 32  0  0  0  0  0  0  0  0999 V2000
  -22.3479   29.5176  -22.7441 C   0  0  0  0  0  0  0  0  0  0  0  0
  -20.9583   29.5075  -22.9799 O   0  0  0  0  0  0  0  0  0  0  0  0
  -20.2444   30.6787  -22.7172 C   0  0  0  0  0  0  0  0  0  0  0  0
  -18.9521   30.8560  -23.1726 C   0  0  0  0  0  0  0  0  0  0  0  0
  -18.2187   32.0091  -22.9270 C   0  0  0  0  0  0  0  0  0  0  0  0
  -18.7810   33.0365  -22.2000 C   0  0  0  0  0  0  0  0  0  0  0  0
  -18.0393   34.2616  -21.9239 C   0  0  0  0  0  0  0  0  0  0  0  0
  -16.8869   34.6295  -22.5342 N   0  0  0  0  0  0  0  0  0  0  0  0
  -16.4635   35.7556  -22.0877 O   0  0  0  0  0  0  0  0  0  0  0  0
  -17.3266   36.1648  -21.1672 C   0  0  0  0  0  0  0  0  0  0  0  0
  -17.1574   37.4345  -20.4342 C   0  0  0  0  0  0  0  0  0  0  0  0
  -17.4723   38.8899  -21.4679 S   0  0  0  0  0  0  0  0  0  0  0  0
  -18.9974   38.6802  -22.3641 C   0  0  0  0  0  0  0  0  0  0  0  0
  -19.9460   37.7354  -22.0936 N   0  0  0  0  0  0  0  0  0  0  0  0
  -20.9200   37.8858  -22.9561 N   0  0  0  0  0  0  0  0  0  0  0  0
  -20.6000   38.9120  -23.7672 C   0  0  0  0  0  0  0  0  0  0  0  0
  -21.4008   39.4481  -24.8955 C   0  0  0  0  0  0  0  0  0  0  0  0
  -19.4038   39.4191  -23.4120 N   0  0  0  0  0  0  0  0  0  0  0  0
  -18.6844   40.4923  -23.9812 C   0  0  0  0  0  0  0  0  0  0  0  0
  -17.9808   40.3975  -25.1646 C   0  0  0  0  0  0  0  0  0  0  0  0
  -17.2919   41.4759  -25.6820 C   0  0  0  0  0  0  0  0  0  0  0  0
  -17.2729   42.6981  -25.0434 C   0  0  0  0  0  0  0  0  0  0  0  0
  -16.5810   43.7888  -25.5589 O   0  0  0  0  0  0  0  0  0  0  0  0
  -16.3674   43.8425  -26.9460 C   0  0  0  0  0  0  0  0  0  0  0  0
  -17.9836   42.7848  -23.8532 C   0  0  0  0  0  0  0  0  0  0  0  0
  -18.6760   41.7138  -23.3261 C   0  0  0  0  0  0  0  0  0  0  0  0
  -18.3031   35.2426  -21.0632 N   0  0  0  0  0  0  0  0  0  0  0  0
  -20.0681   32.8670  -21.7432 C   0  0  0  0  0  0  0  0  0  0  0  0
  -20.7979   31.7167  -21.9889 C   0  0  0  0  0  0  0  0  0  0  0  0
  1  2  1  0
  2  3  1  0
  3  4  2  0
  4  5  1  0
  5  6  2  0
  6  7  1  0
  7  8  2  0
  8  9  1  0
  9 10  1  0
 10 11  1  0
 11 12  1  0
 12 13  1  0
 13 14  2  0
 14 15  1  0
 15 16  2  0
 16 17  1  0
 16 18  1  0
 18 19  1  0
 19 20  2  0
 20 21  1  0
 21 22  2  0
 22 23  1  0
 23 24  1  0
 22 25  1  0
 25 26  2  0
 10 27  2  0
  6 28  1  0
 28 29  2  0
 29  3  1  0
 27  7  1  0
 18 13  1  0
 26 19  1  0
M  END
$$$$
