
     RDKit          3D

 19 19  0  0  0  0  0  0  0  0999 V2000
  -17.9989   39.7266  -23.0317 O   0  0  0  0  0  0  0  0  0  0  0  0
  -18.6863   33.9011  -20.9869 O   0  0  0  0  0  0  0  0  0  0  0  0
  -18.5589   34.3076  -22.1676 C   0  0  0  0  0  0  0  0  0  0  0  0
  -18.6160   33.3973  -23.1969 O   0  0  0  0  0  0  0  0  0  0  0  0
  -18.3537   35.7456  -22.3950 C   0  0  0  0  0  0  0  0  0  0  0  0
  -18.3021   36.6258  -21.3406 C   0  0  0  0  0  0  0  0  0  0  0  0
  -18.1120   37.9685  -21.5282 C   0  0  0  0  0  0  0  0  0  0  0  0
  -17.9699   38.4338  -22.8200 C   0  0  0  0  0  0  0  0  0  0  0  0
  -17.7677   39.8246  -23.0981 N   0  0  0  0  0  0  0  0  0  0  0  0
  -17.9511   40.7413  -22.2698 N   0  0  0  0  0  0  0  0  0  0  0  0
  -17.7522   42.1234  -22.5397 C   0  0  0  0  0  0  0  0  0  0  0  0
  -17.7628   42.6765  -23.7962 C   0  0  0  0  0  0  0  0  0  0  0  0
  -17.5689   44.0132  -24.0367 C   0  0  0  0  0  0  0  0  0  0  0  0
  -17.3500   44.8766  -23.0003 C   0  0  0  0  0  0  0  0  0  0  0  0
  -17.1489   46.2472  -23.2188 O   0  0  0  0  0  0  0  0  0  0  0  0
  -17.3340   44.3470  -21.7238 C   0  0  0  0  0  0  0  0  0  0  0  0
  -17.5284   43.0023  -21.4724 C   0  0  0  0  0  0  0  0  0  0  0  0
  -18.0129   37.5973  -23.9184 C   0  0  0  0  0  0  0  0  0  0  0  0
  -18.2075   36.2521  -23.6642 C   0  0  0  0  0  0  0  0  0  0  0  0
  2  3  2  0
  3  4  1  0
  3  5  1  0
  5  6  2  0
  6  7  1  0
  7  8  2  0
  8  9  1  0
  9 10  2  0
 10 11  1  0
 11 12  2  0
 12 13  1  0
 13 14  2  0
 14 15  1  0
 14 16  1  0
 16 17  2  0
  8 18  1  0
 18 19  2  0
 19  5  1  0
 17 11  1  0
M  END
$$$$
