
     RDKit          3D

 15 16  0  0  0  0  0  0  0  0999 V2000
  -18.2377   34.0796  -23.5521 C   0  0  0  0  0  0  0  0  0  0  0  0
  -18.2420   34.8565  -22.2781 C   0  0  0  0  0  0  0  0  0  0  0  0
  -17.9525   33.9416  -21.1029 C   0  0  0  0  0  0  0  0  0  0  0  0
  -17.3217   36.0511  -22.2946 C   0  0  2  0  0  0  0  0  0  0  0  0
  -16.5730   36.2375  -21.0500 C   0  0  0  0  0  0  0  0  0  0  0  0
  -15.3624   35.9656  -21.0030 O   0  0  0  0  0  0  0  0  0  0  0  0
  -17.2222   36.7238  -19.9081 O   0  0  0  0  0  0  0  0  0  0  0  0
  -18.1221   37.2174  -22.5795 N   0  0  0  0  0  0  0  0  0  0  0  0
  -18.6260   38.4218  -23.1407 C   0  0  0  0  0  0  0  0  0  0  0  0
  -18.1729   39.2929  -23.9196 O   0  0  0  0  0  0  0  0  0  0  0  0
  -19.9432   38.3119  -22.4675 C   0  0  0  0  0  0  0  0  0  0  0  0
  -19.2688   37.2450  -21.6541 C   0  0  1  0  0  0  0  0  0  0  0  0
  -19.8577   35.5833  -21.9579 S   0  0  0  0  0  6  0  0  0  0  0  0
  -20.7023   35.5594  -23.1918 O   0  0  0  0  0  0  0  0  0  0  0  0
  -20.5116   34.9867  -20.7787 O   0  0  0  0  0  0  0  0  0  0  0  0
  1  2  1  0
  2  3  1  0
  2  4  1  0
  4  5  1  1
  5  6  2  0
  5  7  1  0
  4  8  1  0
  8  9  1  0
  9 10  2  0
  9 11  1  0
 12 11  1  6
 12 13  1  0
 13 14  2  0
 13 15  2  0
 13  2  1  0
 12  8  1  0
M  END
$$$$
