
     RDKit          3D

 31 33  0  0  0  0  0  0  0  0999 V2000
  -20.3825   47.7438  -15.5870 O   0  0  0  0  0  0  0  0  0  0  0  0
  -19.2058   48.1324  -15.5384 C   0  0  0  0  0  0  0  0  0  0  0  0
  -18.3721   47.9062  -16.6243 N   0  0  0  0  0  0  0  0  0  0  0  0
  -18.6130   47.3022  -17.8479 N   0  0  0  0  0  0  0  0  0  0  0  0
  -17.8231   47.2693  -19.0076 C   0  0  0  0  0  0  0  0  0  0  0  0
  -16.6747   47.7267  -18.9678 O   0  0  0  0  0  0  0  0  0  0  0  0
  -18.2973   46.7084  -20.2945 C   0  0  0  0  0  0  0  0  0  0  0  0
  -19.5555   46.2275  -20.5161 C   0  0  0  0  0  0  0  0  0  0  0  0
  -19.9800   45.7076  -21.7252 C   0  0  0  0  0  0  0  0  0  0  0  0
  -19.0727   45.6784  -22.7581 C   0  0  0  0  0  0  0  0  0  0  0  0
  -19.5218   45.1162  -24.0765 C   0  0  0  0  0  0  0  0  0  0  0  0
  -18.4037   44.3996  -24.6645 N   0  0  0  0  0  0  0  0  0  0  0  0
  -18.7591   42.7114  -24.6035 S   0  0  0  0  0  6  0  0  0  0  0  0
  -20.2485   42.5561  -24.8093 O   0  0  0  0  0  0  0  0  0  0  0  0
  -18.0024   41.9447  -25.6443 O   0  0  0  0  0  0  0  0  0  0  0  0
  -18.3339   42.1581  -22.9897 C   0  0  0  0  0  0  0  0  0  0  0  0
  -17.8679   43.0187  -22.0190 C   0  0  0  0  0  0  0  0  0  0  0  0
  -17.5436   42.5511  -20.7631 C   0  0  0  0  0  0  0  0  0  0  0  0
  -17.6802   41.2084  -20.4544 C   0  0  0  0  0  0  0  0  0  0  0  0
  -17.3492   40.7902  -19.2051 F   0  0  0  0  0  0  0  0  0  0  0  0
  -18.1465   40.3237  -21.4132 C   0  0  0  0  0  0  0  0  0  0  0  0
  -18.3168   38.6281  -21.0167 Cl  0  0  0  0  0  0  0  0  0  0  0  0
  -18.4591   40.8258  -22.6516 C   0  0  0  0  0  0  0  0  0  0  0  0
  -17.7961   46.1451  -22.6007 C   0  0  0  0  0  0  0  0  0  0  0  0
  -17.4119   46.6607  -21.3633 C   0  0  0  0  0  0  0  0  0  0  0  0
  -18.7291   48.8176  -14.3399 C   0  0  0  0  0  0  0  0  0  0  0  0
  -19.4539   48.6749  -13.1476 C   0  0  0  0  0  0  0  0  0  0  0  0
  -19.0373   49.3005  -12.0102 C   0  0  0  0  0  0  0  0  0  0  0  0
  -17.9095   50.0932  -11.9519 C   0  0  0  0  0  0  0  0  0  0  0  0
  -17.2004   50.2319  -13.1215 C   0  0  0  0  0  0  0  0  0  0  0  0
  -17.6039   49.5998  -14.3109 C   0  0  0  0  0  0  0  0  0  0  0  0
  1  2  2  0
  2  3  1  0
  3  4  1  0
  4  5  1  0
  5  6  2  0
  5  7  1  0
  7  8  2  0
  8  9  1  0
  9 10  2  0
 10 11  1  0
 11 12  1  0
 12 13  1  0
 13 14  2  0
 13 15  2  0
 13 16  1  0
 16 17  2  0
 17 18  1  0
 18 19  2  0
 19 20  1  0
 19 21  1  0
 21 22  1  0
 21 23  2  0
 10 24  1  0
 24 25  2  0
  2 26  1  0
 26 27  2  0
 27 28  1  0
 28 29  2  0
 29 30  1  0
 30 31  2  0
 25  7  1  0
 31 26  1  0
 23 16  1  0
M  END
$$$$
