
     RDKit          3D

 26 28  0  0  0  0  0  0  0  0999 V2000
  -11.0640   -2.3684  -20.8360 C   0  0  0  0  0  0  0  0  0  0  0  0
  -12.2584   -1.5753  -21.3182 C   0  0  0  0  0  0  0  0  0  0  0  0
  -13.2697   -1.5784  -20.1659 C   0  0  0  0  0  0  0  0  0  0  0  0
  -11.8004   -0.1626  -21.5820 C   0  0  0  0  0  0  0  0  0  0  0  0
  -12.8837   -2.1948  -22.5025 C   0  0  0  0  0  0  0  0  0  0  0  0
  -13.3179   -3.4935  -22.4584 C   0  0  0  0  0  0  0  0  0  0  0  0
  -13.8903   -4.0478  -23.5561 C   0  0  0  0  0  0  0  0  0  0  0  0
  -14.0795   -3.3766  -24.7718 C   0  0  0  0  0  0  0  0  0  0  0  0
  -14.6859   -4.0537  -25.8409 N   0  0  0  0  0  0  0  0  0  0  0  0
  -15.7861   -3.5514  -26.5753 C   0  0  0  0  0  0  0  0  0  0  0  0
  -16.1555   -2.3816  -26.5227 O   0  0  0  0  0  0  0  0  0  0  0  0
  -16.4824   -4.4888  -27.4157 N   0  0  0  0  0  0  0  0  0  0  0  0
  -15.7429   -5.5506  -28.0749 C   0  0  0  0  0  0  0  0  0  0  0  0
  -15.8731   -5.3390  -29.5537 C   0  0  0  0  0  0  0  0  0  0  0  0
  -17.1206   -4.7595  -29.8551 N   0  0  0  0  0  0  0  0  0  0  0  0
  -17.4698   -3.8602  -30.8612 C   0  0  0  0  0  0  0  0  0  0  0  0
  -17.0270   -4.0512  -32.1299 N   0  0  0  0  0  0  0  0  0  0  0  0
  -17.3270   -3.2230  -33.1447 C   0  0  0  0  0  0  0  0  0  0  0  0
  -18.1158   -2.1177  -32.9371 C   0  0  0  0  0  0  0  0  0  0  0  0
  -18.5898   -1.8818  -31.6635 C   0  0  0  0  0  0  0  0  0  0  0  0
  -18.2559   -2.7614  -30.6473 C   0  0  0  0  0  0  0  0  0  0  0  0
  -18.8220   -2.5206  -29.0138 Cl  0  0  0  0  0  0  0  0  0  0  0  0
  -18.2060   -5.1749  -28.9683 C   0  0  0  0  0  0  0  0  0  0  0  0
  -17.9037   -4.4385  -27.6519 C   0  0  0  0  0  0  0  0  0  0  0  0
  -13.6419   -2.0887  -24.7954 C   0  0  0  0  0  0  0  0  0  0  0  0
  -13.0462   -1.4895  -23.6751 C   0  0  0  0  0  0  0  0  0  0  0  0
  1  2  1  0
  2  3  1  0
  2  4  1  0
  2  5  1  0
  5  6  2  0
  6  7  1  0
  7  8  2  0
  8  9  1  0
  9 10  1  0
 10 11  2  0
 10 12  1  0
 12 13  1  0
 13 14  1  0
 14 15  1  0
 15 16  1  0
 16 17  2  0
 17 18  1  0
 18 19  2  0
 19 20  1  0
 20 21  2  0
 21 22  1  0
 15 23  1  0
 23 24  1  0
  8 25  1  0
 25 26  2  0
 26  5  1  0
 24 12  1  0
 21 16  1  0
M  END
$$$$
