
     RDKit          3D

 31 32  0  0  0  0  0  0  0  0999 V2000
  -10.5715   44.7313  -17.5325 C   0  0  0  0  0  0  0  0  0  0  0  0
  -11.7943   44.2671  -18.1465 N   0  0  0  0  0  0  0  0  0  0  0  0
  -12.4945   43.1275  -17.6224 C   0  0  0  0  0  0  0  0  0  0  0  0
  -12.3013   44.9499  -19.2728 C   0  0  0  0  0  0  0  0  0  0  0  0
  -11.6112   45.8504  -19.8034 O   0  0  0  0  0  0  0  0  0  0  0  0
  -13.6104   44.6354  -19.8351 C   0  0  0  0  0  0  0  0  0  0  0  0
  -13.8321   44.7234  -21.2007 C   0  0  0  0  0  0  0  0  0  0  0  0
  -15.0545   44.4355  -21.7643 C   0  0  0  0  0  0  0  0  0  0  0  0
  -16.1266   44.0420  -20.9800 C   0  0  0  0  0  0  0  0  0  0  0  0
  -17.6776   43.6785  -21.7263 S   0  0  0  0  0  6  0  0  0  0  0  0
  -18.7714   44.3318  -20.9455 O   0  0  0  0  0  0  0  0  0  0  0  0
  -17.7465   44.2049  -23.1258 O   0  0  0  0  0  0  0  0  0  0  0  0
  -17.8696   41.9665  -21.7302 C   0  0  0  0  0  0  0  0  0  0  0  0
  -17.5005   41.2111  -22.8197 C   0  0  0  0  0  0  0  0  0  0  0  0
  -17.6677   39.8447  -22.8047 C   0  0  0  0  0  0  0  0  0  0  0  0
  -18.2063   39.1562  -21.7166 C   0  0  0  0  0  0  0  0  0  0  0  0
  -18.3564   37.7485  -21.7500 N   0  0  0  0  0  0  0  0  0  0  0  0
  -18.0028   37.0426  -22.9112 C   0  0  0  0  0  0  0  0  0  0  0  0
  -17.4380   37.6373  -23.8607 O   0  0  0  0  0  0  0  0  0  0  0  0
  -18.2814   35.6011  -23.0456 C   0  0  1  0  0  0  0  0  0  0  0  0
  -19.6923   35.2797  -22.6223 C   0  0  0  0  0  0  0  0  0  0  0  0
  -18.1633   35.1932  -24.3790 O   0  0  0  0  0  0  0  0  0  0  0  0
  -17.2419   34.8318  -22.2701 C   0  0  0  0  0  0  0  0  0  0  0  0
  -15.9941   35.1520  -22.7697 F   0  0  0  0  0  0  0  0  0  0  0  0
  -17.4572   33.4866  -22.2182 F   0  0  0  0  0  0  0  0  0  0  0  0
  -17.2848   35.3098  -20.9570 F   0  0  0  0  0  0  0  0  0  0  0  0
  -18.5685   39.9347  -20.6358 C   0  0  0  0  0  0  0  0  0  0  0  0
  -19.2532   39.1301  -19.2228 Cl  0  0  0  0  0  0  0  0  0  0  0  0
  -18.4017   41.3154  -20.6448 C   0  0  0  0  0  0  0  0  0  0  0  0
  -15.9216   43.9518  -19.6236 C   0  0  0  0  0  0  0  0  0  0  0  0
  -14.6879   44.2445  -19.0795 C   0  0  0  0  0  0  0  0  0  0  0  0
  1  2  1  0
  2  3  1  0
  2  4  1  0
  4  5  2  0
  4  6  1  0
  6  7  2  0
  7  8  1  0
  8  9  2  0
  9 10  1  0
 10 11  2  0
 10 12  2  0
 10 13  1  0
 13 14  2  0
 14 15  1  0
 15 16  2  0
 16 17  1  0
 17 18  1  0
 18 19  2  0
 18 20  1  0
 20 21  1  1
 20 22  1  0
 20 23  1  0
 23 24  1  0
 23 25  1  0
 23 26  1  0
 16 27  1  0
 27 28  1  0
 27 29  2  0
  9 30  1  0
 30 31  2  0
 31  6  1  0
 29 13  1  0
M  END
$$$$
