
     RDKit          3D

 18 19  0  0  0  0  0  0  0  0999 V2000
  -19.4491   38.7676  -23.1159 O   0  0  0  0  0  0  0  0  0  0  0  0
  -18.5017   38.7091  -22.2914 C   0  0  0  0  0  0  0  0  0  0  0  0
  -18.0259   37.4300  -21.9304 N   0  0  0  0  0  0  0  0  0  0  0  0
  -18.4990   36.2463  -22.5391 N   0  0  0  0  0  0  0  0  0  0  0  0
  -18.1641   35.1368  -21.9740 C   0  0  0  0  0  0  0  0  0  0  0  0
  -19.1455   34.0637  -21.9061 C   0  0  0  0  0  0  0  0  0  0  0  0
  -18.7633   32.8037  -21.4578 C   0  0  0  0  0  0  0  0  0  0  0  0
  -19.6880   31.7966  -21.3950 C   0  0  0  0  0  0  0  0  0  0  0  0
  -20.9763   32.0314  -21.7710 C   0  0  0  0  0  0  0  0  0  0  0  0
  -21.3988   33.2823  -22.2264 C   0  0  0  0  0  0  0  0  0  0  0  0
  -20.4376   34.2621  -22.2727 C   0  0  0  0  0  0  0  0  0  0  0  0
  -20.8434   35.5176  -22.7254 O   0  0  0  0  0  0  0  0  0  0  0  0
  -17.9596   39.9607  -21.7652 C   0  0  0  0  0  0  0  0  0  0  0  0
  -17.9228   41.1082  -22.5278 C   0  0  0  0  0  0  0  0  0  0  0  0
  -17.4247   42.3060  -22.0803 C   0  0  0  0  0  0  0  0  0  0  0  0
  -16.9505   42.3385  -20.8219 N   0  0  0  0  0  0  0  0  0  0  0  0
  -16.9505   41.2640  -20.0143 C   0  0  0  0  0  0  0  0  0  0  0  0
  -17.4613   40.0529  -20.4861 C   0  0  0  0  0  0  0  0  0  0  0  0
  1  2  2  0
  2  3  1  0
  3  4  1  0
  4  5  2  0
  5  6  1  0
  6  7  2  0
  7  8  1  0
  8  9  2  0
  9 10  1  0
 10 11  2  0
 11 12  1  0
  2 13  1  0
 13 14  2  0
 14 15  1  0
 15 16  2  0
 16 17  1  0
 17 18  2  0
 11  6  1  0
 18 13  1  0
M  END
$$$$
