
     RDKit          3D

 19 21  0  0  0  0  0  0  0  0999 V2000
  -20.3295   34.9859  -20.5038 O   0  0  0  0  0  0  0  0  0  0  0  0
  -19.4683   35.5721  -21.2148 C   0  0  0  0  0  0  0  0  0  0  0  0
  -18.1320   35.1438  -21.4408 N   0  0  0  0  0  0  0  0  0  0  0  0
  -17.4683   36.0550  -22.2895 C   0  0  0  0  0  0  0  0  0  0  0  0
  -16.2759   35.9519  -22.6412 O   0  0  0  0  0  0  0  0  0  0  0  0
  -18.4488   37.1001  -22.6477 C   0  0  0  0  0  0  0  0  0  0  0  0
  -18.8055   37.1015  -24.0826 C   0  0  0  0  0  0  0  0  0  0  0  0
  -17.9042   37.3945  -25.0631 C   0  0  0  0  0  0  0  0  0  0  0  0
  -18.2687   37.3911  -26.4153 C   0  0  0  0  0  0  0  0  0  0  0  0
  -19.5894   37.0772  -26.7336 C   0  0  0  0  0  0  0  0  0  0  0  0
  -20.5052   36.7804  -25.7482 C   0  0  0  0  0  0  0  0  0  0  0  0
  -20.1042   36.7948  -24.4202 C   0  0  0  0  0  0  0  0  0  0  0  0
  -17.9844   38.4549  -22.2258 C   0  0  0  0  0  0  0  0  0  0  0  0
  -17.0557   39.1883  -22.9502 C   0  0  0  0  0  0  0  0  0  0  0  0
  -16.6294   40.4276  -22.5653 C   0  0  0  0  0  0  0  0  0  0  0  0
  -17.1410   40.9756  -21.4100 C   0  0  0  0  0  0  0  0  0  0  0  0
  -18.0649   40.2865  -20.6564 C   0  0  0  0  0  0  0  0  0  0  0  0
  -18.4839   39.0178  -21.0748 C   0  0  0  0  0  0  0  0  0  0  0  0
  -19.6515   36.7616  -21.9253 N   0  0  0  0  0  0  0  0  0  0  0  0
  1  2  2  0
  2  3  1  0
  3  4  1  0
  4  5  2  0
  4  6  1  0
  6  7  1  0
  7  8  2  0
  8  9  1  0
  9 10  2  0
 10 11  1  0
 11 12  2  0
  6 13  1  0
 13 14  2  0
 14 15  1  0
 15 16  2  0
 16 17  1  0
 17 18  2  0
  6 19  1  0
 19  2  1  0
 12  7  1  0
 18 13  1  0
M  END
$$$$
