
     RDKit          3D

 29 31  0  0  0  0  0  0  0  0999 V2000
  -11.0379   26.7833  -46.1189 C   0  0  0  0  0  0  0  0  0  0  0  0
  -12.1056   25.7587  -46.4668 C   0  0  0  0  0  0  0  0  0  0  0  0
  -12.2848   24.8355  -45.3972 O   0  0  0  0  0  0  0  0  0  0  0  0
  -13.3070   23.8932  -45.4563 C   0  0  0  0  0  0  0  0  0  0  0  0
  -14.3042   24.1911  -46.1673 O   0  0  0  0  0  0  0  0  0  0  0  0
  -13.2303   22.6659  -44.7557 N   0  0  0  0  0  0  0  0  0  0  0  0
  -12.0517   21.9869  -44.2920 C   0  0  0  0  0  0  0  0  0  0  0  0
  -12.3758   20.5537  -44.6142 C   0  0  0  0  0  0  0  0  0  0  0  0
  -13.8326   20.4437  -44.2237 C   0  0  0  0  0  0  0  0  0  0  0  0
  -13.8801   19.8800  -42.8307 C   0  0  0  0  0  0  0  0  0  0  0  0
  -15.0361   19.1676  -42.4987 N   0  0  0  0  0  0  0  0  0  0  0  0
  -14.9402   17.8286  -42.0799 C   0  0  0  0  0  0  0  0  0  0  0  0
  -14.2562   17.6811  -40.7490 C   0  0  0  0  0  0  0  0  0  0  0  0
  -14.1416   18.7573  -39.8907 C   0  0  0  0  0  0  0  0  0  0  0  0
  -13.5155   18.6486  -38.6559 C   0  0  0  0  0  0  0  0  0  0  0  0
  -12.9832   17.4445  -38.2471 C   0  0  0  0  0  0  0  0  0  0  0  0
  -12.1790   17.2153  -36.7093 Cl  0  0  0  0  0  0  0  0  0  0  0  0
  -13.0968   16.3768  -39.0989 C   0  0  0  0  0  0  0  0  0  0  0  0
  -13.7224   16.4794  -40.3361 C   0  0  0  0  0  0  0  0  0  0  0  0
  -16.2790   19.8204  -42.4677 C   0  0  0  0  0  0  0  0  0  0  0  0
  -17.3668   18.8850  -42.8650 C   0  0  0  0  0  0  0  0  0  0  0  0
  -18.3440   18.2996  -42.1538 C   0  0  0  0  0  0  0  0  0  0  0  0
  -19.2047   17.4847  -42.7777 C   0  0  0  0  0  0  0  0  0  0  0  0
  -19.0643   17.2721  -44.1201 C   0  0  0  0  0  0  0  0  0  0  0  0
  -19.7773   16.4928  -45.0715 N   0  0  0  0  0  4  0  0  0  0  0  0
  -20.7690   15.8290  -44.8133 O   0  0  0  0  0  0  0  0  0  0  0  0
  -19.3127   16.4914  -46.3709 O   0  0  0  0  0  1  0  0  0  0  0  0
  -17.6091   18.3072  -44.4984 S   0  0  0  0  0  0  0  0  0  0  0  0
  -14.3366   21.8362  -44.3604 C   0  0  0  0  0  0  0  0  0  0  0  0
  1  2  1  0
  2  3  1  0
  3  4  1  0
  4  5  2  0
  4  6  1  0
  6  7  1  0
  7  8  1  0
  8  9  1  0
  9 10  1  0
 10 11  1  0
 11 12  1  0
 12 13  1  0
 13 14  2  0
 14 15  1  0
 15 16  2  0
 16 17  1  0
 16 18  1  0
 18 19  2  0
 11 20  1  0
 20 21  1  0
 21 22  2  0
 22 23  1  0
 23 24  2  0
 24 25  1  0
 25 26  2  0
 25 27  1  0
 24 28  1  0
  9 29  1  0
 29  6  1  0
 19 13  1  0
 28 21  1  0
M  CHG  2  25   1  27  -1
M  END
$$$$
