
     RDKit          3D

 24 28  0  0  0  0  0  0  0  0999 V2000
  -18.2642   37.8934  -19.4682 N   0  0  0  0  0  0  0  0  0  0  0  0
  -18.0498   39.1833  -20.0002 C   0  0  0  0  0  0  0  0  0  0  0  0
  -17.7355   40.2241  -19.1747 N   0  0  0  0  0  0  0  0  0  0  0  0
  -17.5095   41.4437  -19.6907 C   0  0  0  0  0  0  0  0  0  0  0  0
  -17.5866   41.6678  -21.0253 N   0  0  0  0  0  0  0  0  0  0  0  0
  -17.8883   40.6888  -21.8638 C   0  0  0  0  0  0  0  0  0  0  0  0
  -18.1290   39.4091  -21.3496 C   0  0  0  0  0  0  0  0  0  0  0  0
  -18.4030   38.6113  -22.4128 C   0  0  0  0  0  0  0  0  0  0  0  0
  -18.7067   37.1941  -22.4536 C   0  0  0  0  0  0  0  0  0  0  0  0
  -19.8558   36.7451  -23.0469 C   0  0  0  0  0  0  0  0  0  0  0  0
  -20.1807   35.4236  -23.0786 N   0  0  0  0  0  0  0  0  0  0  0  0
  -19.3798   34.5001  -22.5253 C   0  0  0  0  0  0  0  0  0  0  0  0
  -19.4405   33.1469  -22.4058 N   0  0  0  0  0  0  0  0  0  0  0  0
  -18.3364   32.7180  -21.7393 C   0  0  0  0  0  0  0  0  0  0  0  0
  -17.5484   33.7824  -21.4190 C   0  0  0  0  0  0  0  0  0  0  0  0
  -18.1951   34.8947  -21.9070 C   0  0  0  0  0  0  0  0  0  0  0  0
  -17.8774   36.2502  -21.8827 C   0  0  0  0  0  0  0  0  0  0  0  0
  -18.3245   39.3988  -23.5335 N   0  0  0  0  0  0  0  0  0  0  0  0
  -18.0176   40.6363  -23.1998 N   0  0  0  0  0  0  0  0  0  0  0  0
  -17.8486   41.7409  -24.0939 C   0  0  0  0  0  0  0  0  0  0  0  0
  -18.9756   42.7327  -24.0633 C   0  0  0  0  0  0  0  0  0  0  0  0
  -18.6781   43.5721  -25.3051 C   0  0  0  0  0  0  0  0  0  0  0  0
  -17.8679   42.7052  -26.2222 C   0  0  0  0  0  0  0  0  0  0  0  0
  -17.8470   41.3214  -25.5587 C   0  0  0  0  0  0  0  0  0  0  0  0
  1  2  1  0
  2  3  2  0
  3  4  1  0
  4  5  2  0
  5  6  1  0
  6  7  2  0
  7  8  1  0
  8  9  1  0
  9 10  2  0
 10 11  1  0
 11 12  2  0
 12 13  1  0
 13 14  1  0
 14 15  2  0
 15 16  1  0
 16 17  2  0
  8 18  2  0
 18 19  1  0
 19 20  1  0
 20 21  1  0
 21 22  1  0
 22 23  1  0
 23 24  1  0
  7  2  1  0
 17  9  1  0
 24 20  1  0
 19  6  1  0
 16 12  1  0
M  END
$$$$
