
     RDKit          3D

 27 29  0  0  0  0  0  0  0  0999 V2000
  -19.4663   20.6887  -38.6070 O   0  0  0  0  0  0  0  0  0  0  0  0
  -20.2729   19.8062  -38.1845 C   0  0  0  0  0  0  0  0  0  0  0  0
  -19.9256   19.1507  -36.9764 N   0  0  0  0  0  0  0  0  0  0  0  0
  -18.6320   19.3780  -36.3629 C   0  0  1  0  0  0  0  0  0  0  0  0
  -18.8947   19.4945  -34.8707 C   0  0  0  0  0  0  0  0  0  0  0  0
  -18.3337   18.3100  -34.1414 C   0  0  0  0  0  0  0  0  0  0  0  0
  -16.6173   18.7187  -33.7002 S   0  0  0  0  0  0  0  0  0  0  0  0
  -15.5887   18.7752  -35.1880 C   0  0  1  0  0  0  0  0  0  0  0  0
  -14.4308   17.7770  -34.9481 C   0  0  0  0  0  0  0  0  0  0  0  0
  -14.8936   16.3881  -35.2987 C   0  0  0  0  0  0  0  0  0  0  0  0
  -15.2069   16.2170  -36.7823 C   0  0  0  0  0  0  0  0  0  0  0  0
  -15.4636   17.6039  -37.3242 C   0  0  1  0  0  0  0  0  0  0  0  0
  -15.8403   17.6864  -38.7181 C   0  0  0  0  0  0  0  0  0  0  0  0
  -16.2277   16.6844  -39.3506 O   0  0  0  0  0  0  0  0  0  0  0  0
  -15.7791   18.8945  -39.3915 O   0  0  0  0  0  0  0  0  0  0  0  0
  -16.2943   18.2666  -36.3678 N   0  0  0  0  0  0  0  0  0  0  0  0
  -17.6708   18.3149  -36.6700 C   0  0  0  0  0  0  0  0  0  0  0  0
  -18.1069   17.2750  -37.2955 O   0  0  0  0  0  0  0  0  0  0  0  0
  -21.5261   19.4825  -38.9342 C   0  0  1  0  0  0  0  0  0  0  0  0
  -22.3923   18.0709  -38.2465 S   0  0  0  0  0  0  0  0  0  0  0  0
  -22.4464   20.6924  -39.0021 C   0  0  0  0  0  0  0  0  0  0  0  0
  -21.7969   21.6869  -39.8803 C   0  0  0  0  0  0  0  0  0  0  0  0
  -21.4227   22.9076  -39.3772 C   0  0  0  0  0  0  0  0  0  0  0  0
  -20.8084   23.8544  -40.1982 C   0  0  0  0  0  0  0  0  0  0  0  0
  -20.5583   23.6011  -41.5276 C   0  0  0  0  0  0  0  0  0  0  0  0
  -20.9360   22.3733  -42.0287 C   0  0  0  0  0  0  0  0  0  0  0  0
  -21.5494   21.4277  -41.2092 C   0  0  0  0  0  0  0  0  0  0  0  0
  1  2  2  0
  2  3  1  0
  4  3  1  6
  4  5  1  0
  5  6  1  0
  6  7  1  0
  7  8  1  0
  8  9  1  1
  9 10  1  0
 10 11  1  0
 11 12  1  0
 12 13  1  6
 13 14  2  0
 13 15  1  0
 12 16  1  0
 16 17  1  0
 17 18  2  0
  2 19  1  0
 19 20  1  1
 19 21  1  0
 21 22  1  0
 22 23  2  0
 23 24  1  0
 24 25  2  0
 25 26  1  0
 26 27  2  0
 17  4  1  0
 27 22  1  0
 16  8  1  0
M  END
$$$$
