
     RDKit          3D

 27 30  0  0  0  0  0  0  0  0999 V2000
  -22.4333   27.4890  -24.6767 C   0  0  0  0  0  0  0  0  0  0  0  0
  -22.3872   28.1521  -23.3735 N   0  0  0  0  0  0  0  0  0  0  0  0
  -23.1751   27.6139  -22.2825 C   0  0  0  0  0  0  0  0  0  0  0  0
  -21.5783   29.2926  -23.2224 C   0  0  0  0  0  0  0  0  0  0  0  0
  -20.8671   29.6737  -24.1817 O   0  0  0  0  0  0  0  0  0  0  0  0
  -21.5494   30.0410  -21.9730 C   0  0  0  0  0  0  0  0  0  0  0  0
  -20.5808   31.1478  -22.0138 N   0  0  0  0  0  0  0  0  0  0  0  0
  -20.8628   32.4313  -22.2929 C   0  0  0  0  0  0  0  0  0  0  0  0
  -19.6952   33.1940  -22.2411 C   0  0  0  0  0  0  0  0  0  0  0  0
  -19.5369   34.6278  -22.4763 C   0  0  0  0  0  0  0  0  0  0  0  0
  -20.5562   35.5023  -22.1192 C   0  0  0  0  0  0  0  0  0  0  0  0
  -20.4319   36.8776  -22.3349 C   0  0  0  0  0  0  0  0  0  0  0  0
  -19.2862   37.3759  -22.9077 C   0  0  0  0  0  0  0  0  0  0  0  0
  -19.1157   38.7906  -23.1385 C   0  0  0  0  0  0  0  0  0  0  0  0
  -20.0243   39.4649  -23.9244 C   0  0  0  0  0  0  0  0  0  0  0  0
  -19.9367   40.7896  -24.1500 N   0  0  0  0  0  0  0  0  0  0  0  0
  -18.9588   41.5207  -23.6201 C   0  0  0  0  0  0  0  0  0  0  0  0
  -18.0249   40.8920  -22.8271 C   0  0  0  0  0  0  0  0  0  0  0  0
  -17.0080   41.6394  -22.2846 C   0  0  0  0  0  0  0  0  0  0  0  0
  -16.0614   41.0306  -21.4989 C   0  0  0  0  0  0  0  0  0  0  0  0
  -16.0995   39.6756  -21.2341 C   0  0  0  0  0  0  0  0  0  0  0  0
  -17.1340   38.9243  -21.7877 C   0  0  0  0  0  0  0  0  0  0  0  0
  -18.0922   39.5131  -22.5759 C   0  0  0  0  0  0  0  0  0  0  0  0
  -18.2838   36.4839  -23.2552 C   0  0  0  0  0  0  0  0  0  0  0  0
  -18.3859   35.1353  -23.0529 C   0  0  0  0  0  0  0  0  0  0  0  0
  -18.7062   32.2742  -21.9124 C   0  0  0  0  0  0  0  0  0  0  0  0
  -19.2846   31.0646  -21.7871 N   0  0  0  0  0  0  0  0  0  0  0  0
  1  2  1  0
  2  3  1  0
  2  4  1  0
  4  5  2  0
  4  6  1  0
  6  7  1  0
  7  8  1  0
  8  9  2  0
  9 10  1  0
 10 11  2  0
 11 12  1  0
 12 13  2  0
 13 14  1  0
 14 15  2  0
 15 16  1  0
 16 17  2  0
 17 18  1  0
 18 19  2  0
 19 20  1  0
 20 21  2  0
 21 22  1  0
 22 23  2  0
 13 24  1  0
 24 25  2  0
  9 26  1  0
 26 27  2  0
 27  7  1  0
 25 10  1  0
 23 14  1  0
 23 18  1  0
M  END
$$$$
