
     RDKit          3D

 35 38  0  0  0  0  0  0  0  0999 V2000
  -19.0087   21.0435  -46.6447 O   0  0  0  0  0  0  0  0  0  0  0  0
  -20.0668   21.3145  -46.0241 C   0  0  0  0  0  0  0  0  0  0  0  0
  -21.2803   20.9642  -46.5656 O   0  0  0  0  0  0  0  0  0  0  0  0
  -19.9835   22.0131  -44.7036 C   0  0  0  0  0  0  0  0  0  0  0  0
  -21.2109   22.0022  -44.0210 O   0  0  0  0  0  0  0  0  0  0  0  0
  -21.2817   21.3417  -42.7903 C   0  0  0  0  0  0  0  0  0  0  0  0
  -20.9026   20.0556  -42.5709 C   0  0  0  0  0  0  0  0  0  0  0  0
  -20.9847   19.4304  -41.3300 C   0  0  0  0  0  0  0  0  0  0  0  0
  -21.4707   20.1451  -40.2827 C   0  0  0  0  0  0  0  0  0  0  0  0
  -21.6113   19.6007  -38.9305 C   0  0  0  0  0  0  0  0  0  0  0  0
  -20.6493   19.0242  -38.3328 N   0  0  0  0  0  0  0  0  0  0  0  0
  -19.6981   19.5993  -37.5113 N   0  0  0  0  0  0  0  0  0  0  0  0
  -19.8093   19.4894  -36.1048 C   0  0  0  0  0  0  0  0  0  0  0  0
  -20.6841   20.1615  -35.5137 O   0  0  0  0  0  0  0  0  0  0  0  0
  -18.9347   18.6152  -35.3180 C   0  0  0  0  0  0  0  0  0  0  0  0
  -17.6217   18.8997  -35.0755 C   0  0  0  0  0  0  0  0  0  0  0  0
  -16.8249   18.0324  -34.3173 C   0  0  0  0  0  0  0  0  0  0  0  0
  -17.3302   16.8716  -33.7934 C   0  0  0  0  0  0  0  0  0  0  0  0
  -16.4772   15.9454  -32.9901 C   0  0  0  0  0  0  0  0  0  0  0  0
  -15.2265   15.5161  -33.4699 C   0  0  0  0  0  0  0  0  0  0  0  0
  -14.6378   14.4454  -32.1534 S   0  0  0  0  0  0  0  0  0  0  0  0
  -16.1851   14.7349  -31.1316 C   0  0  0  0  0  0  0  0  0  0  0  0
  -16.2960   14.0609  -29.8281 N   0  0  0  0  0  0  0  0  0  0  0  0
  -15.2213   13.3354  -29.3367 C   0  0  0  0  0  0  0  0  0  0  0  0
  -15.4136   12.4353  -28.3083 C   0  0  0  0  0  0  0  0  0  0  0  0
  -14.3719   11.6999  -27.7617 C   0  0  0  0  0  0  0  0  0  0  0  0
  -13.1127   11.8940  -28.2817 C   0  0  0  0  0  0  0  0  0  0  0  0
  -11.7711   10.9813  -27.6158 Cl  0  0  0  0  0  0  0  0  0  0  0  0
  -12.8900   12.7823  -29.3042 C   0  0  0  0  0  0  0  0  0  0  0  0
  -13.9556   13.5036  -29.8289 C   0  0  0  0  0  0  0  0  0  0  0  0
  -16.7681   15.4449  -31.8126 N   0  0  0  0  0  0  0  0  0  0  0  0
  -18.6489   16.5799  -34.0336 C   0  0  0  0  0  0  0  0  0  0  0  0
  -19.4453   17.4481  -34.7917 C   0  0  0  0  0  0  0  0  0  0  0  0
  -21.8632   21.4633  -40.4925 C   0  0  0  0  0  0  0  0  0  0  0  0
  -21.7800   22.0735  -41.7153 C   0  0  0  0  0  0  0  0  0  0  0  0
  1  2  2  0
  2  3  1  0
  2  4  1  0
  4  5  1  0
  5  6  1  0
  6  7  2  0
  7  8  1  0
  8  9  2  0
  9 10  1  0
 10 11  2  0
 11 12  1  0
 12 13  1  0
 13 14  2  0
 13 15  1  0
 15 16  2  0
 16 17  1  0
 17 18  2  0
 18 19  1  0
 19 20  2  0
 20 21  1  0
 21 22  1  0
 22 23  1  0
 23 24  1  0
 24 25  2  0
 25 26  1  0
 26 27  2  0
 27 28  1  0
 27 29  1  0
 29 30  2  0
 22 31  2  0
 18 32  1  0
 32 33  2  0
  9 34  1  0
 34 35  2  0
 35  6  1  0
 33 15  1  0
 31 19  1  0
 30 24  1  0
M  END
$$$$
