
     RDKit          3D

 12 12  0  0  0  0  0  0  0  0999 V2000
  -19.3339   33.2439  -22.5691 O   0  0  0  0  0  0  0  0  0  0  0  0
  -19.3312   34.4421  -22.2807 C   0  0  0  0  0  0  0  0  0  0  0  0
  -20.5127   35.1633  -22.4141 O   0  0  0  0  0  0  0  0  0  0  0  0
  -18.1447   35.1503  -21.8029 C   0  0  0  0  0  0  0  0  0  0  0  0
  -17.7097   36.3259  -22.6303 C   0  0  0  0  0  0  0  0  0  0  0  0
  -18.3684   37.5904  -22.1562 C   0  0  0  0  0  0  0  0  0  0  0  0
  -17.9296   38.7962  -22.9567 C   0  0  0  0  0  0  0  0  0  0  0  0
  -17.4316   39.9099  -22.0946 C   0  0  0  0  0  0  0  0  0  0  0  0
  -16.9835   41.1159  -22.8315 C   0  0  0  0  0  0  0  0  0  0  0  0
  -18.1411   41.8051  -23.4864 C   0  0  0  0  0  0  0  0  0  0  0  0
  -19.3383   42.1767  -22.1379 S   0  0  0  0  0  0  0  0  0  0  0  0
  -18.7422   40.4786  -20.9352 S   0  0  0  0  0  0  0  0  0  0  0  0
  1  2  2  0
  2  3  1  0
  2  4  1  0
  4  5  1  0
  5  6  1  0
  6  7  1  0
  7  8  1  0
  8  9  1  0
  9 10  1  0
 10 11  1  0
 11 12  1  0
 12  8  1  0
M  END
$$$$
