
     RDKit          3D

 22 24  0  0  0  0  0  0  0  0999 V2000
  -18.0523   19.6260  -30.7626 C   0  0  0  0  0  0  0  0  0  0  0  0
  -17.2997   19.1531  -31.9538 C   0  0  0  0  0  0  0  0  0  0  0  0
  -15.7990   19.2787  -31.6375 C   0  0  0  0  0  0  0  0  0  0  0  0
  -17.5244   17.8381  -32.3792 N   0  0  0  0  0  0  0  0  0  0  0  0
  -16.7878   17.2768  -33.4324 C   0  0  0  0  0  0  0  0  0  0  0  0
  -15.2840   17.5585  -33.4033 C   0  0  0  0  0  0  0  0  0  0  0  0
  -14.8642   18.1453  -34.6256 O   0  0  0  0  0  0  0  0  0  0  0  0
  -14.5371   16.2432  -33.3545 C   0  0  0  0  0  0  0  0  0  0  0  0
  -14.2343   15.7267  -32.1418 O   0  0  0  0  0  0  0  0  0  0  0  0
  -13.9537   14.5053  -31.6364 C   0  0  0  0  0  0  0  0  0  0  0  0
  -13.1547   13.5996  -32.2994 C   0  0  0  0  0  0  0  0  0  0  0  0
  -12.8855   12.3586  -31.7596 C   0  0  0  0  0  0  0  0  0  0  0  0
  -13.3992   11.9720  -30.5451 C   0  0  0  0  0  0  0  0  0  0  0  0
  -14.2070   12.8755  -29.8665 C   0  0  0  0  0  0  0  0  0  0  0  0
  -14.8639   12.8201  -28.6728 N   0  0  0  0  0  0  0  0  0  0  0  0
  -15.5239   13.9846  -28.4665 C   0  0  0  0  0  0  0  0  0  0  0  0
  -16.3221   14.4423  -27.4455 C   0  0  0  0  0  0  0  0  0  0  0  0
  -16.8856   15.7101  -27.4938 C   0  0  0  0  0  0  0  0  0  0  0  0
  -16.6714   16.5592  -28.5594 C   0  0  0  0  0  0  0  0  0  0  0  0
  -15.8686   16.0861  -29.5760 C   0  0  0  0  0  0  0  0  0  0  0  0
  -15.2990   14.8229  -29.5421 C   0  0  0  0  0  0  0  0  0  0  0  0
  -14.4834   14.1118  -30.3891 C   0  0  0  0  0  0  0  0  0  0  0  0
  1  2  1  0
  2  3  1  0
  2  4  1  0
  4  5  1  0
  5  6  1  0
  6  7  1  0
  6  8  1  0
  8  9  1  0
  9 10  1  0
 10 11  2  0
 11 12  1  0
 12 13  2  0
 13 14  1  0
 14 15  1  0
 15 16  1  0
 16 17  2  0
 17 18  1  0
 18 19  2  0
 19 20  1  0
 20 21  2  0
 21 22  1  0
 22 10  1  0
 22 14  2  0
 21 16  1  0
M  END
$$$$
