
     RDKit          3D

 51 57  0  0  0  0  0  0  0  0999 V2000
  -18.5631   -2.0341  -32.0218 C   0  0  0  0  0  0  0  0  0  0  0  0
  -17.6793   -0.8252  -32.0156 C   0  0  0  0  0  0  0  0  0  0  0  0
  -16.4484   -0.8983  -32.8386 C   0  0  1  0  0  0  0  0  0  0  0  0
  -15.6741   -2.1578  -32.8347 C   0  0  2  0  0  0  0  0  0  0  0  0
  -16.2776   -3.2933  -33.5792 C   0  0  0  0  0  0  0  0  0  0  0  0
  -15.4774   -2.5307  -31.4862 O   0  0  0  0  0  0  0  0  0  0  0  0
  -16.7864   -0.5495  -34.2329 N   0  0  0  0  0  0  0  0  0  0  0  0
  -17.8456   -0.9671  -34.9024 N   0  0  0  0  0  0  0  0  0  0  0  0
  -17.8015   -0.4375  -36.1367 C   0  0  0  0  0  0  0  0  0  0  0  0
  -16.7064    0.3283  -36.2665 N   0  0  0  0  0  0  0  0  0  0  0  0
  -16.3432    1.0359  -37.4440 C   0  0  0  0  0  0  0  0  0  0  0  0
  -16.7004    0.5916  -38.7046 C   0  0  0  0  0  0  0  0  0  0  0  0
  -16.3611    1.2484  -39.8758 C   0  0  0  0  0  0  0  0  0  0  0  0
  -15.6258    2.4118  -39.7961 C   0  0  0  0  0  0  0  0  0  0  0  0
  -15.2574    3.1059  -41.0158 N   0  0  0  0  0  0  0  0  0  0  0  0
  -15.2577    4.5270  -40.9432 C   0  0  0  0  0  0  0  0  0  0  0  0
  -14.8510    5.1462  -42.2473 C   0  0  0  0  0  0  0  0  0  0  0  0
  -13.8720    4.2951  -42.8517 N   0  0  0  0  0  0  0  0  0  0  0  0
  -12.5318    4.6906  -42.9486 C   0  0  0  0  0  0  0  0  0  0  0  0
  -12.1743    5.9764  -43.3847 C   0  0  0  0  0  0  0  0  0  0  0  0
  -10.8647    6.3638  -43.5058 C   0  0  0  0  0  0  0  0  0  0  0  0
   -9.8069    5.4796  -43.1948 C   0  0  0  0  0  0  0  0  0  0  0  0
   -8.5816    5.9665  -43.3468 O   0  0  0  0  0  0  0  0  0  0  0  0
   -7.6191    6.3144  -44.1923 C   0  0  0  0  0  0  0  0  0  0  0  0
   -6.3535    6.9512  -43.7462 C   0  0  2  0  0  0  0  0  0  0  0  0
   -6.6501    8.2653  -42.9625 C   0  0  0  0  0  0  0  0  0  0  0  0
   -5.3784    8.7882  -42.8341 O   0  0  0  0  0  0  0  0  0  0  0  0
   -4.6932    8.6587  -44.0043 C   0  0  1  0  0  0  0  0  0  0  0  0
   -4.8406    9.9702  -44.7524 C   0  0  0  0  0  0  0  0  0  0  0  0
   -4.0277   10.0735  -45.9176 N   0  0  0  0  0  0  0  0  0  0  0  0
   -4.4524    9.7505  -47.1655 C   0  0  0  0  0  0  0  0  0  0  0  0
   -3.4659    9.9606  -48.0405 N   0  0  0  0  0  0  0  0  0  0  0  0
   -2.4016   10.4213  -47.3499 C   0  0  0  0  0  0  0  0  0  0  0  0
   -2.7775   10.4760  -46.0740 N   0  0  0  0  0  0  0  0  0  0  0  0
   -3.3031    8.2230  -43.8387 C   0  0  0  0  0  0  0  0  0  0  0  0
   -2.5364    8.7662  -42.8016 C   0  0  0  0  0  0  0  0  0  0  0  0
   -1.2236    8.3993  -42.6049 C   0  0  0  0  0  0  0  0  0  0  0  0
   -0.6301    7.4717  -43.4436 C   0  0  0  0  0  0  0  0  0  0  0  0
    0.6766    7.0970  -43.2595 F   0  0  0  0  0  0  0  0  0  0  0  0
   -1.4043    6.9577  -44.4487 C   0  0  0  0  0  0  0  0  0  0  0  0
   -2.7105    7.3043  -44.6665 C   0  0  0  0  0  0  0  0  0  0  0  0
   -3.3992    6.7211  -45.7047 F   0  0  0  0  0  0  0  0  0  0  0  0
   -5.4290    7.5271  -44.7563 C   0  0  0  0  0  0  0  0  0  0  0  0
  -10.2016    4.2395  -42.7728 C   0  0  0  0  0  0  0  0  0  0  0  0
  -11.4915    3.8350  -42.6460 C   0  0  0  0  0  0  0  0  0  0  0  0
  -14.3738    3.0363  -43.3195 C   0  0  0  0  0  0  0  0  0  0  0  0
  -14.9472    2.3113  -42.1382 C   0  0  0  0  0  0  0  0  0  0  0  0
  -15.2479    2.8902  -38.5464 C   0  0  0  0  0  0  0  0  0  0  0  0
  -15.6073    2.2046  -37.3998 C   0  0  0  0  0  0  0  0  0  0  0  0
  -16.0983    0.2411  -35.0761 C   0  0  0  0  0  0  0  0  0  0  0  0
  -15.0178    0.8314  -34.7974 O   0  0  0  0  0  0  0  0  0  0  0  0
  1  2  1  0
  3  2  1  1
  3  4  1  0
  4  5  1  6
  4  6  1  0
  3  7  1  0
  7  8  1  0
  8  9  2  0
  9 10  1  0
 10 11  1  0
 11 12  2  0
 12 13  1  0
 13 14  2  0
 14 15  1  0
 15 16  1  0
 16 17  1  0
 17 18  1  0
 18 19  1  0
 19 20  2  0
 20 21  1  0
 21 22  2  0
 22 23  1  0
 23 24  1  0
 25 24  1  6
 25 26  1  0
 26 27  1  0
 27 28  1  0
 28 29  1  6
 29 30  1  0
 30 31  1  0
 31 32  2  0
 32 33  1  0
 33 34  2  0
 28 35  1  0
 35 36  2  0
 36 37  1  0
 37 38  2  0
 38 39  1  0
 38 40  1  0
 40 41  2  0
 41 42  1  0
 28 43  1  0
 22 44  1  0
 44 45  2  0
 18 46  1  0
 46 47  1  0
 14 48  1  0
 48 49  2  0
 10 50  1  0
 50 51  2  0
 50  7  1  0
 49 11  1  0
 47 15  1  0
 45 19  1  0
 43 25  1  0
 34 30  1  0
 41 35  1  0
M  END
$$$$
