
     RDKit          3D

 38 42  0  0  0  0  0  0  0  0999 V2000
  -22.8285   20.4200  -28.9073 C   0  0  0  0  0  0  0  0  0  0  0  0
  -23.7995   20.0838  -29.8422 O   0  0  0  0  0  0  0  0  0  0  0  0
  -25.0829   20.4936  -29.9383 C   0  0  0  0  0  0  0  0  0  0  0  0
  -26.0675   20.0042  -29.1144 C   0  0  0  0  0  0  0  0  0  0  0  0
  -27.3817   20.4014  -29.1889 C   0  0  0  0  0  0  0  0  0  0  0  0
  -28.3435   19.8904  -28.3467 C   0  0  0  0  0  0  0  0  0  0  0  0
  -28.0332   18.9455  -27.3530 N   0  0  0  0  0  0  0  0  0  0  0  0
  -29.0100   18.2522  -26.5723 C   0  0  0  0  0  0  0  0  0  0  0  0
  -28.9663   16.8485  -26.5228 C   0  0  0  0  0  0  0  0  0  0  0  0
  -29.8821   16.1200  -25.8083 C   0  0  0  0  0  0  0  0  0  0  0  0
  -30.8985   16.7330  -25.0978 C   0  0  0  0  0  0  0  0  0  0  0  0
  -31.8350   15.9315  -24.3666 N   0  0  0  0  0  0  0  0  0  0  0  0
  -32.5542   14.8935  -25.0125 C   0  0  0  0  0  0  0  0  0  0  0  0
  -32.1455   14.5385  -26.1610 O   0  0  0  0  0  0  0  0  0  0  0  0
  -33.7118   14.2342  -24.4304 C   0  0  0  0  0  0  0  0  0  0  0  0
  -34.4124   14.8686  -23.4082 C   0  0  0  0  0  0  0  0  0  0  0  0
  -35.5156   14.2883  -22.8178 C   0  0  0  0  0  0  0  0  0  0  0  0
  -35.9487   13.0498  -23.2384 C   0  0  0  0  0  0  0  0  0  0  0  0
  -35.2573   12.4118  -24.2553 C   0  0  0  0  0  0  0  0  0  0  0  0
  -34.1508   13.0105  -24.8366 C   0  0  0  0  0  0  0  0  0  0  0  0
  -30.9548   18.1045  -25.1360 C   0  0  0  0  0  0  0  0  0  0  0  0
  -30.0178   18.8537  -25.8679 C   0  0  0  0  0  0  0  0  0  0  0  0
  -29.5839   20.3451  -28.5040 N   0  0  0  0  0  0  0  0  0  0  0  0
  -29.9037   21.2698  -29.4461 C   0  0  0  0  0  0  0  0  0  0  0  0
  -28.9859   21.7753  -30.2699 N   0  0  0  0  0  0  0  0  0  0  0  0
  -27.7203   21.3570  -30.1602 C   0  0  0  0  0  0  0  0  0  0  0  0
  -26.7355   21.8684  -31.0076 C   0  0  0  0  0  0  0  0  0  0  0  0
  -25.4295   21.4488  -30.9080 C   0  0  0  0  0  0  0  0  0  0  0  0
  -24.4138   21.8876  -31.6937 O   0  0  0  0  0  0  0  0  0  0  0  0
  -23.7139   21.2074  -32.6518 C   0  0  0  0  0  0  0  0  0  0  0  0
  -23.9970   21.7166  -34.0495 C   0  0  0  0  0  0  0  0  0  0  0  0
  -22.8131   21.3760  -34.9574 C   0  0  0  0  0  0  0  0  0  0  0  0
  -22.8553   19.9978  -35.3237 N   0  0  0  0  0  0  0  0  0  0  0  0
  -23.5253   19.8085  -36.6144 C   0  0  0  0  0  0  0  0  0  0  0  0
  -22.5018   19.6791  -37.7241 C   0  0  0  0  0  0  0  0  0  0  0  0
  -21.4571   20.5452  -37.4006 O   0  0  0  0  0  0  0  0  0  0  0  0
  -20.6750   19.8820  -36.4319 C   0  0  0  0  0  0  0  0  0  0  0  0
  -21.5571   19.3424  -35.3516 C   0  0  0  0  0  0  0  0  0  0  0  0
  1  2  1  0
  2  3  1  0
  3  4  2  0
  4  5  1  0
  5  6  2  0
  6  7  1  0
  7  8  1  0
  8  9  2  0
  9 10  1  0
 10 11  2  0
 11 12  1  0
 12 13  1  0
 13 14  2  0
 13 15  1  0
 15 16  2  0
 16 17  1  0
 17 18  2  0
 18 19  1  0
 19 20  2  0
 11 21  1  0
 21 22  2  0
  6 23  1  0
 23 24  2  0
 24 25  1  0
 25 26  2  0
 26 27  1  0
 27 28  2  0
 28 29  1  0
 29 30  1  0
 30 31  1  0
 31 32  1  0
 32 33  1  0
 33 34  1  0
 34 35  1  0
 35 36  1  0
 36 37  1  0
 37 38  1  0
 28  3  1  0
 38 33  1  0
 26  5  1  0
 22  8  1  0
 20 15  1  0
M  END
$$$$
