
     RDKit          3D

 21 22  0  0  0  0  0  0  0  0999 V2000
  -19.2601   38.9341  -26.7733 C   0  0  0  0  0  0  0  0  0  0  0  0
  -19.1217   39.9979  -25.8885 O   0  0  0  0  0  0  0  0  0  0  0  0
  -18.5926   39.9715  -24.6308 C   0  0  0  0  0  0  0  0  0  0  0  0
  -18.1698   38.7757  -24.0953 C   0  0  0  0  0  0  0  0  0  0  0  0
  -17.6180   38.6848  -22.8102 C   0  0  0  0  0  0  0  0  0  0  0  0
  -17.1712   37.3660  -22.2824 C   0  0  0  0  0  0  0  0  0  0  0  0
  -18.2803   36.4220  -22.0415 C   0  0  0  0  0  0  0  0  0  0  0  0
  -19.2217   36.7712  -21.0655 C   0  0  0  0  0  0  0  0  0  0  0  0
  -20.2213   35.9059  -20.8367 N   0  0  0  0  0  0  0  0  0  0  0  0
  -20.4056   34.7452  -21.4486 C   0  0  0  0  0  0  0  0  0  0  0  0
  -21.4885   33.8692  -21.1640 N   0  0  0  0  0  0  0  0  0  0  0  0
  -19.5070   34.3923  -22.3931 N   0  0  0  0  0  0  0  0  0  0  0  0
  -18.4675   35.2269  -22.6738 C   0  0  0  0  0  0  0  0  0  0  0  0
  -17.5545   34.8253  -23.6764 N   0  0  0  0  0  0  0  0  0  0  0  0
  -17.5147   39.8562  -22.0960 C   0  0  0  0  0  0  0  0  0  0  0  0
  -17.9327   41.0932  -22.6019 C   0  0  0  0  0  0  0  0  0  0  0  0
  -17.8209   42.2480  -21.8697 O   0  0  0  0  0  0  0  0  0  0  0  0
  -17.1551   42.3219  -20.6223 C   0  0  0  0  0  0  0  0  0  0  0  0
  -18.4666   41.1145  -23.8719 C   0  0  0  0  0  0  0  0  0  0  0  0
  -18.8998   42.3065  -24.4331 O   0  0  0  0  0  0  0  0  0  0  0  0
  -17.9635   43.1150  -25.1265 C   0  0  0  0  0  0  0  0  0  0  0  0
  1  2  1  0
  2  3  1  0
  3  4  2  0
  4  5  1  0
  5  6  1  0
  6  7  1  0
  7  8  2  0
  8  9  1  0
  9 10  2  0
 10 11  1  0
 10 12  1  0
 12 13  2  0
 13 14  1  0
  5 15  2  0
 15 16  1  0
 16 17  1  0
 17 18  1  0
 16 19  2  0
 19 20  1  0
 20 21  1  0
 19  3  1  0
 13  7  1  0
M  END
$$$$
