
     RDKit          3D

 29 32  0  0  0  0  0  0  0  0999 V2000
  -17.2540   18.3110  -41.0672 O   0  0  0  0  0  0  0  0  0  0  0  0
  -17.0346   18.5437  -39.8558 C   0  0  0  0  0  0  0  0  0  0  0  0
  -15.7473   18.8716  -39.4785 O   0  0  0  0  0  0  0  0  0  0  0  0
  -18.1160   18.4663  -38.8847 C   0  0  0  0  0  0  0  0  0  0  0  0
  -19.4231   18.3206  -39.3165 C   0  0  0  0  0  0  0  0  0  0  0  0
  -20.4325   18.2439  -38.3723 C   0  0  0  0  0  0  0  0  0  0  0  0
  -21.7304   18.1006  -38.8150 C   0  0  0  0  0  0  0  0  0  0  0  0
  -22.7538   18.0237  -37.8984 C   0  0  0  0  0  0  0  0  0  0  0  0
  -22.4291   18.0947  -36.5404 C   0  0  0  0  0  0  0  0  0  0  0  0
  -21.1376   18.2375  -36.0882 C   0  0  0  0  0  0  0  0  0  0  0  0
  -20.1274   18.3132  -37.0198 C   0  0  0  0  0  0  0  0  0  0  0  0
  -18.8158   18.4606  -36.5648 C   0  0  0  0  0  0  0  0  0  0  0  0
  -18.5473   18.5453  -35.1147 C   0  0  0  0  0  0  0  0  0  0  0  0
  -18.3657   17.2456  -34.4477 C   0  0  0  0  0  0  0  0  0  0  0  0
  -19.4361   16.5105  -33.9760 C   0  0  0  0  0  0  0  0  0  0  0  0
  -20.7077   17.0420  -34.1480 O   0  0  0  0  0  0  0  0  0  0  0  0
  -19.3163   15.2960  -33.3524 C   0  0  0  0  0  0  0  0  0  0  0  0
  -20.4879   14.5351  -32.8552 C   0  0  0  0  0  0  0  0  0  0  0  0
  -20.3902   13.3456  -32.5155 O   0  0  0  0  0  0  0  0  0  0  0  0
  -21.7127   15.1667  -32.7681 O   0  0  0  0  0  0  0  0  0  0  0  0
  -18.0365   14.8064  -33.2029 C   0  0  0  0  0  0  0  0  0  0  0  0
  -16.9259   15.4817  -33.6476 C   0  0  0  0  0  0  0  0  0  0  0  0
  -15.6645   14.9553  -33.4869 C   0  0  0  0  0  0  0  0  0  0  0  0
  -14.5373   15.6285  -33.9418 C   0  0  0  0  0  0  0  0  0  0  0  0
  -14.6678   16.8317  -34.5600 C   0  0  0  0  0  0  0  0  0  0  0  0
  -15.9541   17.3519  -34.7149 C   0  0  0  0  0  0  0  0  0  0  0  0
  -17.0934   16.7147  -34.2770 C   0  0  0  0  0  0  0  0  0  0  0  0
  -17.8448   18.5328  -37.5170 C   0  0  0  0  0  0  0  0  0  0  0  0
  -16.5086   18.6805  -37.1668 O   0  0  0  0  0  0  0  0  0  0  0  0
  1  2  2  0
  2  3  1  0
  2  4  1  0
  4  5  2  0
  5  6  1  0
  6  7  2  0
  7  8  1  0
  8  9  2  0
  9 10  1  0
 10 11  2  0
 11 12  1  0
 12 13  1  0
 13 14  1  0
 14 15  2  0
 15 16  1  0
 15 17  1  0
 17 18  1  0
 18 19  2  0
 18 20  1  0
 17 21  2  0
 21 22  1  0
 22 23  2  0
 23 24  1  0
 24 25  2  0
 25 26  1  0
 26 27  2  0
 12 28  2  0
 28 29  1  0
 28  4  1  0
 11  6  1  0
 27 14  1  0
 27 22  1  0
M  END
$$$$
