
     RDKit          3D

 22 21  0  0  0  0  0  0  0  0999 V2000
  -26.4932   16.3335  -24.2283 C   0  0  0  0  0  0  0  0  0  0  0  0
  -25.6087   17.0219  -25.1761 N   0  0  0  0  0  0  0  0  0  0  0  0
  -26.1289   17.3754  -26.4359 C   0  0  0  0  0  0  0  0  0  0  0  0
  -25.4284   18.0952  -27.2892 C   0  0  0  0  0  0  0  0  0  0  0  0
  -25.9398   18.4552  -28.5554 N   0  0  0  0  0  4  0  0  0  0  0  0
  -26.5482   17.5800  -29.1949 O   0  0  0  0  0  0  0  0  0  0  0  0
  -25.7383   19.7381  -29.0016 O   0  0  0  0  0  1  0  0  0  0  0  0
  -27.4610   16.9986  -26.8678 N   0  0  0  0  0  0  0  0  0  0  0  0
  -28.4629   18.0035  -26.7515 C   0  0  0  0  0  0  0  0  0  0  0  0
  -29.7975   17.5734  -27.2493 C   0  0  0  0  0  0  0  0  0  0  0  0
  -29.8491   17.1109  -28.9828 S   0  0  0  0  0  0  0  0  0  0  0  0
  -31.4472   17.6441  -29.6767 C   0  0  0  0  0  0  0  0  0  0  0  0
  -31.4147   19.1497  -29.6558 C   0  0  0  0  0  0  0  0  0  0  0  0
  -31.8507   20.0091  -28.6819 C   0  0  0  0  0  0  0  0  0  0  0  0
  -31.5820   21.2680  -29.1608 C   0  0  0  0  0  0  0  0  0  0  0  0
  -30.9948   21.1504  -30.4039 C   0  0  0  0  0  0  0  0  0  0  0  0
  -30.5816   22.3486  -31.1831 C   0  0  0  0  0  0  0  0  0  0  0  0
  -29.2174   22.6574  -31.0704 N   0  0  0  0  0  0  0  0  0  0  0  0
  -28.6327   22.7971  -29.7875 C   0  0  0  0  0  0  0  0  0  0  0  0
  -28.6359   23.4862  -32.0734 C   0  0  0  0  0  0  0  0  0  0  0  0
  -30.9189   19.8768  -30.6498 O   0  0  0  0  0  0  0  0  0  0  0  0
  -28.7308   18.8424  -28.2868 Cl  0  0  0  0  0  0  0  0  0  0  0  0
  1  2  1  0
  2  3  1  0
  3  4  2  3
  4  5  1  0
  5  6  2  0
  5  7  1  0
  3  8  1  0
  8  9  1  0
  9 10  1  0
 10 11  1  0
 11 12  1  0
 12 13  1  0
 13 14  2  0
 14 15  1  0
 15 16  2  0
 16 17  1  0
 17 18  1  0
 18 19  1  0
 18 20  1  0
 16 21  1  0
 21 13  1  0
M  CHG  2   5   1   7  -1
M  END
$$$$
