
     RDKit          3D

 29 31  0  0  0  0  0  0  0  0999 V2000
  -20.2226   13.4350  -34.0947 C   0  0  0  0  0  0  0  0  0  0  0  0
  -21.1821   13.5849  -35.2772 C   0  0  0  0  0  0  0  0  0  0  0  0
  -22.3433   14.4167  -34.7781 C   0  0  2  0  0  0  0  0  0  0  0  0
  -23.4942   14.1855  -35.7405 C   0  0  0  0  0  0  0  0  0  0  0  0
  -22.0465   15.8617  -34.7630 C   0  0  0  0  0  0  0  0  0  0  0  0
  -21.8171   16.4912  -33.6761 O   0  0  0  0  0  0  0  0  0  0  0  0
  -21.9937   16.6409  -35.9139 O   0  0  0  0  0  0  0  0  0  0  0  0
  -20.7479   17.1941  -36.3846 C   0  0  1  0  0  0  0  0  0  0  0  0
  -20.6341   16.7154  -37.8151 C   0  0  0  0  0  0  0  0  0  0  0  0
  -21.7776   17.2119  -38.6374 C   0  0  1  0  0  0  0  0  0  0  0  0
  -22.6287   16.0331  -39.1285 C   0  0  0  0  0  0  0  0  0  0  0  0
  -22.7060   18.1394  -37.9622 C   0  0  0  0  0  0  0  0  0  0  0  0
  -22.3181   18.8624  -36.9552 C   0  0  0  0  0  0  0  0  0  0  0  0
  -23.2349   19.7703  -36.2975 C   0  0  0  0  0  0  0  0  0  0  0  0
  -22.8135   20.6795  -35.4628 C   0  0  0  0  0  0  0  0  0  0  0  0
  -21.3346   20.7729  -35.1902 C   0  0  2  0  0  0  0  0  0  0  0  0
  -20.7911   21.5974  -36.3609 C   0  0  0  0  0  0  0  0  0  0  0  0
  -20.7065   19.4177  -35.1590 C   0  0  2  0  0  0  0  0  0  0  0  0
  -19.2566   19.4288  -34.8899 C   0  0  0  0  0  0  0  0  0  0  0  0
  -18.6074   18.6956  -33.8199 C   0  0  0  0  0  0  0  0  0  0  0  0
  -17.5374   19.2960  -32.9753 C   0  0  2  0  0  0  0  0  0  0  0  0
  -16.1785   19.2097  -33.5769 C   0  0  0  0  0  0  0  0  0  0  0  0
  -15.2352   18.2479  -32.8929 C   0  0  1  0  0  0  0  0  0  0  0  0
  -13.9828   18.3011  -33.4573 O   0  0  0  0  0  0  0  0  0  0  0  0
  -15.0678   18.6637  -31.4207 C   0  0  0  0  0  0  0  0  0  0  0  0
  -16.4717   18.6322  -30.8848 C   0  0  0  0  0  0  0  0  0  0  0  0
  -16.5991   18.7590  -29.6237 O   0  0  0  0  0  0  0  0  0  0  0  0
  -17.4965   18.4717  -31.7616 O   0  0  0  0  0  0  0  0  0  0  0  0
  -20.9125   18.7113  -36.4940 C   0  0  1  0  0  0  0  0  0  0  0  0
  1  2  1  0
  2  3  1  0
  3  4  1  6
  3  5  1  0
  5  6  2  0
  5  7  1  0
  8  7  1  6
  8  9  1  0
  9 10  1  0
 10 11  1  1
 10 12  1  0
 12 13  2  0
 13 14  1  0
 14 15  2  0
 15 16  1  0
 16 17  1  6
 16 18  1  0
 18 19  1  6
 19 20  1  0
 21 20  1  6
 21 22  1  0
 22 23  1  0
 23 24  1  6
 23 25  1  0
 25 26  1  0
 26 27  2  0
 26 28  1  0
 18 29  1  0
 29  8  1  0
 29 13  1  1
 28 21  1  0
M  END
$$$$
