
     RDKit          3D

 12 12  0  0  0  0  0  0  0  0999 V2000
  -18.5320   40.4927  -24.6344 C   0  0  0  0  0  0  0  0  0  0  0  0
  -18.8758   40.0286  -23.3456 O   0  0  0  0  0  0  0  0  0  0  0  0
  -18.4355   38.8012  -22.9261 C   0  0  0  0  0  0  0  0  0  0  0  0
  -17.2698   38.6776  -22.2005 C   0  0  0  0  0  0  0  0  0  0  0  0
  -16.8757   37.4077  -21.8040 C   0  0  0  0  0  0  0  0  0  0  0  0
  -17.5938   36.2784  -22.1024 C   0  0  0  0  0  0  0  0  0  0  0  0
  -17.0243   34.5455  -21.5420 Br  0  0  0  0  0  0  0  0  0  0  0  0
  -18.7547   36.4234  -22.8277 C   0  0  0  0  0  0  0  0  0  0  0  0
  -19.5528   35.2387  -23.1681 C   0  0  0  0  0  0  0  0  0  0  0  0
  -20.8007   35.3563  -23.2072 O   0  0  0  0  0  0  0  0  0  0  0  0
  -19.1721   37.6733  -23.2360 C   0  0  0  0  0  0  0  0  0  0  0  0
  -20.3564   37.8275  -23.9767 O   0  0  0  0  0  0  0  0  0  0  0  0
  1  2  1  0
  2  3  1  0
  3  4  2  0
  4  5  1  0
  5  6  2  0
  6  7  1  0
  6  8  1  0
  8  9  1  0
  9 10  2  0
  8 11  2  0
 11 12  1  0
 11  3  1  0
M  END
$$$$
