
     RDKit          3D

 31 33  0  0  0  0  0  0  0  0999 V2000
  -18.4571   44.2901  -23.5952 O   0  0  0  0  0  0  0  0  0  0  0  0
  -18.4611   44.0753  -22.3697 C   0  0  0  0  0  0  0  0  0  0  0  0
  -19.6395   44.4814  -21.5549 C   0  0  0  0  0  0  0  0  0  0  0  0
  -20.6210   45.2569  -22.4393 C   0  0  0  0  0  0  0  0  0  0  0  0
  -21.8708   45.5039  -21.6998 C   0  0  0  0  0  0  0  0  0  0  0  0
  -22.3252   46.7882  -21.5331 C   0  0  0  0  0  0  0  0  0  0  0  0
  -23.5083   47.0065  -20.8311 C   0  0  0  0  0  0  0  0  0  0  0  0
  -24.2318   45.9565  -20.3005 C   0  0  0  0  0  0  0  0  0  0  0  0
  -25.4094   46.2431  -19.6077 O   0  0  0  0  0  0  0  0  0  0  0  0
  -23.7667   44.6706  -20.4737 C   0  0  0  0  0  0  0  0  0  0  0  0
  -22.5842   44.4595  -21.1759 C   0  0  0  0  0  0  0  0  0  0  0  0
  -17.3180   43.4317  -21.7177 C   0  0  0  0  0  0  0  0  0  0  0  0
  -16.4090   44.2667  -21.0664 C   0  0  0  0  0  0  0  0  0  0  0  0
  -16.6263   45.6386  -21.0678 O   0  0  0  0  0  0  0  0  0  0  0  0
  -15.3034   43.7922  -20.4206 C   0  0  0  0  0  0  0  0  0  0  0  0
  -15.0609   42.4219  -20.4034 C   0  0  0  0  0  0  0  0  0  0  0  0
  -13.9341   41.9517  -19.7435 O   0  0  0  0  0  0  0  0  0  0  0  0
  -15.9548   41.6193  -21.0424 C   0  0  0  0  0  0  0  0  0  0  0  0
  -17.1058   42.0776  -21.7186 C   0  0  0  0  0  0  0  0  0  0  0  0
  -17.8775   41.1430  -22.2963 O   0  0  0  0  0  0  0  0  0  0  0  0
  -18.4615   39.9925  -21.9600 C   0  0  2  0  0  0  0  0  0  0  0  0
  -17.5639   38.9316  -22.2233 O   0  0  0  0  0  0  0  0  0  0  0  0
  -18.1390   37.7805  -21.7191 C   0  0  2  0  0  0  0  0  0  0  0  0
  -17.1412   36.6541  -21.5764 C   0  0  0  0  0  0  0  0  0  0  0  0
  -15.8529   37.1779  -21.6257 O   0  0  0  0  0  0  0  0  0  0  0  0
  -19.2555   37.3860  -22.6936 C   0  0  1  0  0  0  0  0  0  0  0  0
  -19.7156   36.1130  -22.4405 O   0  0  0  0  0  0  0  0  0  0  0  0
  -20.3481   38.4383  -22.4924 C   0  0  2  0  0  0  0  0  0  0  0  0
  -21.4388   38.2274  -23.2953 O   0  0  0  0  0  0  0  0  0  0  0  0
  -19.7353   39.7788  -22.7969 C   0  0  1  0  0  0  0  0  0  0  0  0
  -20.6345   40.7593  -22.3819 O   0  0  0  0  0  0  0  0  0  0  0  0
  1  2  2  0
  2  3  1  0
  3  4  1  0
  4  5  1  0
  5  6  2  0
  6  7  1  0
  7  8  2  0
  8  9  1  0
  8 10  1  0
 10 11  2  0
  2 12  1  0
 12 13  2  0
 13 14  1  0
 13 15  1  0
 15 16  2  0
 16 17  1  0
 16 18  1  0
 18 19  2  0
 19 20  1  0
 21 20  1  6
 21 22  1  0
 22 23  1  0
 23 24  1  6
 24 25  1  0
 23 26  1  0
 26 27  1  1
 26 28  1  0
 28 29  1  6
 28 30  1  0
 30 31  1  1
 11  5  1  0
 19 12  1  0
 30 21  1  0
M  END
$$$$
