
     RDKit          3D

 19 18  0  0  0  0  0  0  0  0999 V2000
  -19.2257   38.4792  -23.4097 Cl  0  0  0  0  0  0  0  0  0  0  0  0
  -21.1648   41.3903  -24.4881 N   0  0  0  0  0  0  0  0  0  0  0  0
  -19.7515   41.5209  -24.3120 C   0  0  0  0  0  0  0  0  0  0  0  0
  -19.0928   42.3393  -25.3906 C   0  0  0  0  0  0  0  0  0  0  0  0
  -17.7219   42.4228  -25.1531 O   0  0  0  0  0  0  0  0  0  0  0  0
  -19.1006   40.1926  -24.1242 C   0  0  0  0  0  0  0  0  0  0  0  0
  -17.8520   40.1366  -23.9595 O   0  0  0  0  0  0  0  0  0  0  0  0
  -19.8302   38.9799  -24.1227 N   0  0  0  0  0  0  0  0  0  0  0  0
  -19.2550   37.7157  -23.9492 N   0  0  0  0  0  0  0  0  0  0  0  0
  -19.2508   37.4258  -22.5179 C   0  0  0  0  0  0  0  0  0  0  0  0
  -18.6710   36.1194  -22.2019 C   0  0  0  0  0  0  0  0  0  0  0  0
  -17.4147   36.0211  -21.6844 C   0  0  0  0  0  0  0  0  0  0  0  0
  -16.8936   34.7790  -21.3969 C   0  0  0  0  0  0  0  0  0  0  0  0
  -17.6705   33.6572  -21.6454 C   0  0  0  0  0  0  0  0  0  0  0  0
  -17.1684   32.4013  -21.3652 O   0  0  0  0  0  0  0  0  0  0  0  0
  -18.9547   33.7493  -22.1739 C   0  0  0  0  0  0  0  0  0  0  0  0
  -19.6975   32.6007  -22.4069 O   0  0  0  0  0  0  0  0  0  0  0  0
  -19.4578   34.9946  -22.4541 C   0  0  0  0  0  0  0  0  0  0  0  0
  -20.7383   35.1351  -22.9842 O   0  0  0  0  0  0  0  0  0  0  0  0
  2  3  1  0
  3  4  1  0
  4  5  1  0
  3  6  1  0
  6  7  2  0
  6  8  1  0
  8  9  1  0
  9 10  1  0
 10 11  1  0
 11 12  2  0
 12 13  1  0
 13 14  2  0
 14 15  1  0
 14 16  1  0
 16 17  1  0
 16 18  2  0
 18 19  1  0
 18 11  1  0
M  END
$$$$
