
     RDKit          3D

 37 39  0  0  0  0  0  0  0  0999 V2000
  -22.0326   41.3524  -20.2224 O   0  0  0  0  0  0  0  0  0  0  0  0
  -21.1415   42.2206  -20.1632 C   0  0  0  0  0  0  0  0  0  0  0  0
  -21.5213   43.6011  -19.8735 C   0  0  0  0  0  0  0  0  0  0  0  0
  -22.4328   43.8763  -18.9627 C   0  0  0  0  0  0  0  0  0  0  0  0
  -22.9006   45.1686  -18.5758 C   0  0  0  0  0  0  0  0  0  0  0  0
  -22.4142   46.2971  -19.1862 C   0  0  0  0  0  0  0  0  0  0  0  0
  -22.8497   47.5767  -18.8331 C   0  0  0  0  0  0  0  0  0  0  0  0
  -23.7938   47.6838  -17.8425 C   0  0  0  0  0  0  0  0  0  0  0  0
  -24.2431   48.9378  -17.4726 O   0  0  0  0  0  0  0  0  0  0  0  0
  -24.3060   46.5794  -17.2069 C   0  0  0  0  0  0  0  0  0  0  0  0
  -25.2544   46.7566  -16.2177 O   0  0  0  0  0  0  0  0  0  0  0  0
  -23.8421   45.3114  -17.5909 C   0  0  0  0  0  0  0  0  0  0  0  0
  -19.8448   41.8183  -20.3768 O   0  0  0  0  0  0  0  0  0  0  0  0
  -19.3174   41.4482  -21.6450 C   0  0  0  0  0  0  0  0  0  0  0  0
  -17.8975   41.9297  -21.7893 C   0  0  0  0  0  0  0  0  0  0  0  0
  -16.9095   41.1546  -20.9874 C   0  0  0  0  0  0  0  0  0  0  0  0
  -15.7060   41.1153  -21.6839 O   0  0  0  0  0  0  0  0  0  0  0  0
  -16.6657   41.8652  -19.7100 C   0  0  0  0  0  0  0  0  0  0  0  0
  -16.2885   43.0627  -19.7603 O   0  0  0  0  0  0  0  0  0  0  0  0
  -16.8425   41.2451  -18.4727 O   0  0  0  0  0  0  0  0  0  0  0  0
  -17.3076   39.7270  -20.7247 C   0  0  0  0  0  0  0  0  0  0  0  0
  -18.2768   39.1811  -21.7374 C   0  0  0  0  0  0  0  0  0  0  0  0
  -17.6534   38.8581  -22.9706 O   0  0  0  0  0  0  0  0  0  0  0  0
  -17.2634   37.5968  -23.3520 C   0  0  0  0  0  0  0  0  0  0  0  0
  -16.1130   37.4911  -23.7920 O   0  0  0  0  0  0  0  0  0  0  0  0
  -18.1774   36.4338  -23.2386 C   0  0  0  0  0  0  0  0  0  0  0  0
  -18.2251   35.7222  -22.1276 C   0  0  0  0  0  0  0  0  0  0  0  0
  -19.0007   34.5106  -21.9434 C   0  0  0  0  0  0  0  0  0  0  0  0
  -18.3908   33.2946  -21.7365 C   0  0  0  0  0  0  0  0  0  0  0  0
  -19.1053   32.1294  -21.5600 C   0  0  0  0  0  0  0  0  0  0  0  0
  -20.4832   32.1626  -21.5886 C   0  0  0  0  0  0  0  0  0  0  0  0
  -21.1643   30.9796  -21.4087 O   0  0  0  0  0  0  0  0  0  0  0  0
  -21.1103   33.3524  -21.7915 C   0  0  0  0  0  0  0  0  0  0  0  0
  -22.5023   33.3585  -21.8160 O   0  0  0  0  0  0  0  0  0  0  0  0
  -20.3737   34.5322  -21.9699 C   0  0  0  0  0  0  0  0  0  0  0  0
  -19.5122   39.9983  -21.9120 C   0  0  0  0  0  0  0  0  0  0  0  0
  -19.8907   39.8542  -23.2690 O   0  0  0  0  0  0  0  0  0  0  0  0
  1  2  2  0
  2  3  1  0
  3  4  2  0
  4  5  1  0
  5  6  2  0
  6  7  1  0
  7  8  2  0
  8  9  1  0
  8 10  1  0
 10 11  1  0
 10 12  2  0
  2 13  1  0
 13 14  1  0
 14 15  1  0
 15 16  1  0
 16 17  1  0
 16 18  1  0
 18 19  2  0
 18 20  1  0
 16 21  1  0
 21 22  1  0
 22 23  1  0
 23 24  1  0
 24 25  2  0
 24 26  1  0
 26 27  2  0
 27 28  1  0
 28 29  2  0
 29 30  1  0
 30 31  2  0
 31 32  1  0
 31 33  1  0
 33 34  1  0
 33 35  2  0
 22 36  1  0
 36 37  1  0
 12  5  1  0
 36 14  1  0
 35 28  1  0
M  END
$$$$
