
     RDKit          3D

  5  4  0  0  0  0  0  0  0  0999 V2000
  -16.7223   33.8369  -23.2325 C   0  0  0  0  0  0  0  0  0  0  0  0
  -17.8607   34.2277  -22.3646 C   0  0  0  0  0  0  0  0  0  0  0  0
  -17.8619   35.6248  -21.9866 N   0  0  0  0  0  0  0  0  0  0  0  0
  -17.0480   35.8952  -20.8308 C   0  0  0  0  0  0  0  0  0  0  0  0
  -19.2074   36.1247  -21.8441 C   0  0  0  0  0  0  0  0  0  0  0  0
  1  2  1  0
  2  3  1  0
  3  4  1  0
  3  5  1  0
M  END
$$$$
