
     RDKit          3D

 13 13  0  0  0  0  0  0  0  0999 V2000
   -2.2179   15.8880  -16.4867 N   0  0  0  0  0  0  0  0  0  0  0  0
   -1.2188   16.1565  -17.0890 C   0  0  0  0  0  0  0  0  0  0  0  0
   -0.0315   16.4937  -17.7873 C   0  0  0  0  0  0  0  0  0  0  0  0
    1.2188   15.8003  -17.5047 C   0  0  0  0  0  0  0  0  0  0  0  0
    2.2180   15.2622  -17.2951 N   0  0  0  0  0  0  0  0  0  0  0  0
   -0.0124   17.4326  -18.7063 C   0  0  0  0  0  0  0  0  0  0  0  0
    1.1543   17.9222  -19.4062 C   0  0  0  0  0  0  0  0  0  0  0  0
    2.4263   17.8233  -18.8167 C   0  0  0  0  0  0  0  0  0  0  0  0
    3.5339   18.3195  -19.4714 C   0  0  0  0  0  0  0  0  0  0  0  0
    3.4543   18.9223  -20.7035 C   0  0  0  0  0  0  0  0  0  0  0  0
    2.2068   19.0177  -21.2757 C   0  0  0  0  0  0  0  0  0  0  0  0
    1.0614   18.5215  -20.6320 C   0  0  0  0  0  0  0  0  0  0  0  0
   -0.4997   18.7265  -21.3938 Cl  0  0  0  0  0  0  0  0  0  0  0  0
  1  2  3  0
  2  3  1  0
  3  4  1  0
  4  5  3  0
  3  6  2  3
  6  7  1  0
  7  8  2  0
  8  9  1  0
  9 10  2  0
 10 11  1  0
 11 12  2  0
 12 13  1  0
 12  7  1  0
M  END
$$$$
