
     RDKit          3D

 35 38  0  0  0  0  0  0  0  0999 V2000
  -13.0438   47.2490  -20.5337 C   0  0  0  0  0  0  0  0  0  0  0  0
  -12.5202   46.6853  -19.3214 N   0  0  0  0  0  0  0  0  0  0  0  0
  -13.4081   46.9233  -18.1871 C   0  0  0  0  0  0  0  0  0  0  0  0
  -14.7629   46.2343  -18.4071 C   0  0  0  0  0  0  0  0  0  0  0  0
  -14.6108   45.3519  -19.4985 N   0  0  0  0  0  0  0  0  0  0  0  0
  -15.7119   45.0853  -20.3255 C   0  0  0  0  0  0  0  0  0  0  0  0
  -16.2923   43.7429  -20.2582 C   0  0  0  0  0  0  0  0  0  0  0  0
  -15.9676   42.7142  -21.1083 C   0  0  0  0  0  0  0  0  0  0  0  0
  -16.5558   41.4385  -20.9998 C   0  0  0  0  0  0  0  0  0  0  0  0
  -17.4814   41.1545  -20.0422 C   0  0  0  0  0  0  0  0  0  0  0  0
  -18.1049   39.8950  -19.8493 N   0  0  0  0  0  0  0  0  0  0  0  0
  -18.4180   39.0015  -20.8711 C   0  0  0  0  0  0  0  0  0  0  0  0
  -18.3243   37.6868  -20.7351 N   0  0  0  0  0  0  0  0  0  0  0  0
  -18.6362   36.8372  -21.7290 C   0  0  0  0  0  0  0  0  0  0  0  0
  -19.0694   37.3777  -22.9304 C   0  0  0  0  0  0  0  0  0  0  0  0
  -19.4865   36.3337  -24.2519 Cl  0  0  0  0  0  0  0  0  0  0  0  0
  -19.1843   38.7608  -23.1207 C   0  0  0  0  0  0  0  0  0  0  0  0
  -19.6381   39.2510  -24.3512 N   0  0  0  0  0  0  0  0  0  0  0  0
  -19.1773   40.4011  -25.0137 C   0  0  0  0  0  0  0  0  0  0  0  0
  -18.4391   41.4185  -24.4466 C   0  0  0  0  0  0  0  0  0  0  0  0
  -18.0156   42.5466  -25.1390 C   0  0  0  0  0  0  0  0  0  0  0  0
  -18.3276   42.6955  -26.4594 C   0  0  0  0  0  0  0  0  0  0  0  0
  -19.0668   41.7037  -27.0773 C   0  0  0  0  0  0  0  0  0  0  0  0
  -19.4852   40.5783  -26.3760 C   0  0  0  0  0  0  0  0  0  0  0  0
  -20.4321   39.3398  -27.1645 S   0  0  0  0  0  6  0  0  0  0  0  0
  -20.0429   37.9637  -26.6994 O   0  0  0  0  0  0  0  0  0  0  0  0
  -20.1593   39.4270  -28.6588 O   0  0  0  0  0  0  0  0  0  0  0  0
  -22.0945   39.6498  -26.9183 N   0  0  0  0  0  0  0  0  0  0  0  0
  -22.7661   39.9040  -28.1555 C   0  0  0  0  0  0  0  0  0  0  0  0
  -22.6644   38.5855  -26.1269 C   0  0  0  0  0  0  0  0  0  0  0  0
  -18.8469   39.4976  -22.0651 N   0  0  0  0  0  0  0  0  0  0  0  0
  -17.8129   42.2140  -19.1710 C   0  0  0  0  0  0  0  0  0  0  0  0
  -17.2299   43.4491  -19.2923 C   0  0  0  0  0  0  0  0  0  0  0  0
  -13.5218   44.4533  -19.4815 C   0  0  0  0  0  0  0  0  0  0  0  0
  -12.2387   45.2954  -19.5352 C   0  0  0  0  0  0  0  0  0  0  0  0
  1  2  1  0
  2  3  1  0
  3  4  1  0
  4  5  1  0
  5  6  1  0
  6  7  1  0
  7  8  2  0
  8  9  1  0
  9 10  2  0
 10 11  1  0
 11 12  1  0
 12 13  2  0
 13 14  1  0
 14 15  2  0
 15 16  1  0
 15 17  1  0
 17 18  1  0
 18 19  1  0
 19 20  2  0
 20 21  1  0
 21 22  2  0
 22 23  1  0
 23 24  2  0
 24 25  1  0
 25 26  2  0
 25 27  2  0
 25 28  1  0
 28 29  1  0
 28 30  1  0
 17 31  2  0
 10 32  1  0
 32 33  2  0
  5 34  1  0
 34 35  1  0
 35  2  1  0
 33  7  1  0
 31 12  1  0
 24 19  1  0
M  END
$$$$
