
     RDKit          3D

 10  9  0  0  0  0  0  0  0  0999 V2000
  -37.4017   11.9221  -21.7556 C   0  0  0  0  0  0  0  0  0  0  0  0
  -37.7283   12.6468  -23.0597 C   0  0  0  0  0  0  0  0  0  0  0  0
  -36.9809   13.9337  -23.1541 C   0  0  0  0  0  0  0  0  0  0  0  0
  -35.7795   13.8446  -24.0757 C   0  0  0  0  0  0  0  0  0  0  0  0
  -35.1049   15.1831  -24.2282 C   0  0  0  0  0  0  0  0  0  0  0  0
  -33.9123   15.1418  -25.1478 C   0  0  0  0  0  0  0  0  0  0  0  0
  -33.3168   16.4826  -25.4079 C   0  0  0  0  0  0  0  0  0  0  0  0
  -33.4087   16.7805  -26.8184 N   0  0  0  0  0  0  0  0  0  0  0  0
  -32.4202   16.3872  -27.7558 C   0  0  0  0  0  0  0  0  0  0  0  0
  -31.2687   16.0275  -27.4025 O   0  0  0  0  0  0  0  0  0  0  0  0
  1  2  1  0
  2  3  1  0
  3  4  1  0
  4  5  1  0
  5  6  1  0
  6  7  1  0
  7  8  1  0
  8  9  1  0
  9 10  2  0
M  END
$$$$
