
     RDKit          3D

 20 21  0  0  0  0  0  0  0  0999 V2000
  -23.8480   16.0682  -31.1904 O   0  0  0  0  0  0  0  0  0  0  0  0
  -24.0602   17.2953  -31.4025 C   0  0  0  0  0  0  0  0  0  0  0  0
  -23.4194   17.9027  -32.5076 N   0  0  0  0  0  0  0  0  0  0  0  0
  -22.5911   17.1564  -33.3895 C   0  0  0  0  0  0  0  0  0  0  0  0
  -21.5938   17.7721  -34.1141 C   0  0  0  0  0  0  0  0  0  0  0  0
  -20.7550   17.0963  -34.9894 C   0  0  0  0  0  0  0  0  0  0  0  0
  -20.9364   15.7376  -35.1351 C   0  0  0  0  0  0  0  0  0  0  0  0
  -19.9283   14.8022  -36.2144 Cl  0  0  0  0  0  0  0  0  0  0  0  0
  -21.9198   15.0798  -34.4318 C   0  0  0  0  0  0  0  0  0  0  0  0
  -22.1226   13.3559  -34.6403 Cl  0  0  0  0  0  0  0  0  0  0  0  0
  -22.7462   15.7891  -33.5598 C   0  0  0  0  0  0  0  0  0  0  0  0
  -24.9244   17.9912  -30.5255 N   0  0  0  0  0  0  0  0  0  0  0  0
  -25.5569   17.3976  -29.3983 C   0  0  0  0  0  0  0  0  0  0  0  0
  -25.9771   18.1691  -28.3308 C   0  0  0  0  0  0  0  0  0  0  0  0
  -26.5930   17.5948  -27.2320 C   0  0  0  0  0  0  0  0  0  0  0  0
  -26.8133   16.2440  -27.1524 C   0  0  0  0  0  0  0  0  0  0  0  0
  -27.5862   15.4889  -25.7830 Cl  0  0  0  0  0  0  0  0  0  0  0  0
  -26.3973   15.4544  -28.2162 C   0  0  0  0  0  0  0  0  0  0  0  0
  -26.6743   13.7216  -28.1253 Cl  0  0  0  0  0  0  0  0  0  0  0  0
  -25.7851   16.0402  -29.3043 C   0  0  0  0  0  0  0  0  0  0  0  0
  1  2  2  0
  2  3  1  0
  3  4  1  0
  4  5  2  0
  5  6  1  0
  6  7  2  0
  7  8  1  0
  7  9  1  0
  9 10  1  0
  9 11  2  0
  2 12  1  0
 12 13  1  0
 13 14  2  0
 14 15  1  0
 15 16  2  0
 16 17  1  0
 16 18  1  0
 18 19  1  0
 18 20  2  0
 11  4  1  0
 20 13  1  0
M  END
$$$$
