
     RDKit          3D

 22 26  0  0  0  0  0  0  0  0999 V2000
  -17.8926   43.7400  -25.4171 C   0  0  0  0  0  0  0  0  0  0  0  0
  -19.1104   43.3897  -24.6240 C   0  0  2  0  0  0  0  0  0  0  0  0
  -20.3466   43.3710  -25.5112 C   0  0  0  0  0  0  0  0  0  0  0  0
  -21.4647   43.9717  -24.6835 C   0  0  0  0  0  0  0  0  0  0  0  0
  -20.8156   43.9873  -23.2925 C   0  0  0  0  0  0  0  0  0  0  0  0
  -19.4721   44.3846  -23.6449 N   0  0  0  0  0  0  0  0  0  0  0  0
  -18.5955   44.4725  -22.5120 C   0  0  0  0  0  0  0  0  0  0  0  0
  -18.4382   43.1716  -21.8387 C   0  0  0  0  0  0  0  0  0  0  0  0
  -18.1441   43.2584  -20.5863 N   0  0  0  0  0  0  0  0  0  0  0  0
  -17.9238   42.2262  -19.6454 N   0  0  0  0  0  0  0  0  0  0  0  0
  -17.9484   40.7971  -19.8424 C   0  0  0  0  0  0  0  0  0  0  0  0
  -17.6912   40.0821  -18.8554 O   0  0  0  0  0  0  0  0  0  0  0  0
  -18.2411   40.0720  -21.0715 C   0  0  0  0  0  0  0  0  0  0  0  0
  -18.2104   38.7018  -20.9669 C   0  0  0  0  0  0  0  0  0  0  0  0
  -18.4728   37.9028  -22.0707 C   0  0  0  0  0  0  0  0  0  0  0  0
  -18.4381   36.5464  -21.9492 F   0  0  0  0  0  0  0  0  0  0  0  0
  -18.7638   38.5219  -23.2690 C   0  0  0  0  0  0  0  0  0  0  0  0
  -18.8038   39.8932  -23.4119 C   0  0  0  0  0  0  0  0  0  0  0  0
  -19.0457   40.7781  -24.4014 N   0  0  0  0  0  0  0  0  0  0  0  0
  -18.9491   42.0388  -23.9786 C   0  0  0  0  0  0  0  0  0  0  0  0
  -18.6298   41.9807  -22.6535 C   0  0  0  0  0  0  0  0  0  0  0  0
  -18.5373   40.6621  -22.2919 C   0  0  0  0  0  0  0  0  0  0  0  0
  2  1  1  6
  2  3  1  0
  3  4  1  0
  4  5  1  0
  5  6  1  0
  6  7  1  0
  7  8  1  0
  8  9  2  0
  9 10  1  0
 10 11  1  0
 11 12  2  0
 11 13  1  0
 13 14  1  0
 14 15  2  0
 15 16  1  0
 15 17  1  0
 17 18  2  0
 18 19  1  0
 19 20  1  0
 20 21  2  0
 21 22  1  0
  6  2  1  0
 21  8  1  0
 20  2  1  0
 22 13  2  0
 22 18  1  0
M  END
$$$$
