
     RDKit          3D

  9  8  0  0  0  0  0  0  0  0999 V2000
  -18.1477   41.1060  -21.9237 N   0  0  0  0  0  0  0  0  0  0  0  0
  -18.1145   40.0673  -22.9596 C   0  0  0  0  0  0  0  0  0  0  0  0
  -17.1885   38.9894  -22.4570 C   0  0  0  0  0  0  0  0  0  0  0  0
  -17.9422   37.7295  -22.0932 C   0  0  0  0  0  0  0  0  0  0  0  0
  -17.3265   36.5003  -22.6975 C   0  0  0  0  0  0  0  0  0  0  0  0
  -17.5230   35.3047  -21.8103 C   0  0  0  0  0  0  0  0  0  0  0  0
  -18.7520   34.5526  -22.1311 C   0  0  0  0  0  0  0  0  0  0  0  0
  -18.8642   33.3317  -21.9059 O   0  0  0  0  0  0  0  0  0  0  0  0
  -19.8120   35.2244  -22.6994 O   0  0  0  0  0  0  0  0  0  0  0  0
  1  2  1  0
  2  3  1  0
  3  4  1  0
  4  5  1  0
  5  6  1  0
  6  7  1  0
  7  8  2  0
  7  9  1  0
M  END
$$$$
