
     RDKit          3D

 23 24  0  0  0  0  0  0  0  0999 V2000
  -14.2591   44.0666  -19.3159 C   0  0  0  0  0  0  0  0  0  0  0  0
  -14.8915   43.0099  -20.2089 C   0  0  0  0  0  0  0  0  0  0  0  0
  -14.1290   42.2696  -20.8614 O   0  0  0  0  0  0  0  0  0  0  0  0
  -16.2731   42.9052  -20.2679 N   0  0  0  0  0  0  0  0  0  0  0  0
  -16.9759   41.9163  -20.9985 C   0  0  0  0  0  0  0  0  0  0  0  0
  -18.3039   41.6206  -20.6237 C   0  0  0  0  0  0  0  0  0  0  0  0
  -19.0551   40.6780  -21.2775 C   0  0  0  0  0  0  0  0  0  0  0  0
  -18.5703   39.9544  -22.3429 C   0  0  0  0  0  0  0  0  0  0  0  0
  -19.5220   38.7532  -23.1798 S   0  0  0  0  0  6  0  0  0  0  0  0
  -20.8018   39.3334  -23.7173 O   0  0  0  0  0  0  0  0  0  0  0  0
  -18.7598   38.2141  -24.3543 O   0  0  0  0  0  0  0  0  0  0  0  0
  -19.9215   37.4223  -22.1680 N   0  0  0  0  0  0  0  0  0  0  0  0
  -19.1097   36.2870  -22.6286 C   0  0  0  0  0  0  0  0  0  0  0  0
  -18.2187   35.7655  -21.5562 C   0  0  0  0  0  0  0  0  0  0  0  0
  -17.5841   34.1490  -22.0277 S   0  0  0  0  0  0  0  0  0  0  0  0
  -18.8220   32.8894  -22.1330 C   0  0  0  0  0  0  0  0  0  0  0  0
  -20.1250   33.0881  -21.7629 C   0  0  0  0  0  0  0  0  0  0  0  0
  -21.0416   32.0762  -21.8777 C   0  0  0  0  0  0  0  0  0  0  0  0
  -20.6586   30.8487  -22.3670 C   0  0  0  0  0  0  0  0  0  0  0  0
  -19.3373   30.6725  -22.7336 C   0  0  0  0  0  0  0  0  0  0  0  0
  -18.4635   31.6857  -22.6086 N   0  0  0  0  0  0  0  0  0  0  0  0
  -17.2788   40.2351  -22.7153 C   0  0  0  0  0  0  0  0  0  0  0  0
  -16.4978   41.1960  -22.0568 C   0  0  0  0  0  0  0  0  0  0  0  0
  1  2  1  0
  2  3  2  0
  2  4  1  0
  4  5  1  0
  5  6  2  0
  6  7  1  0
  7  8  2  0
  8  9  1  0
  9 10  2  0
  9 11  2  0
  9 12  1  0
 12 13  1  0
 13 14  1  0
 14 15  1  0
 15 16  1  0
 16 17  2  0
 17 18  1  0
 18 19  2  0
 19 20  1  0
 20 21  2  0
  8 22  1  0
 22 23  2  0
 23  5  1  0
 21 16  1  0
M  END
$$$$
