
     RDKit          3D

 56 59  0  0  0  0  0  0  0  0999 V2000
  -17.1963   24.9694  -39.2815 C   0  0  0  0  0  0  0  0  0  0  0  0
  -18.4412   24.1326  -39.1673 C   0  0  0  0  0  0  0  0  0  0  0  0
  -18.2228   22.9172  -38.2127 C   0  0  2  0  0  0  0  0  0  0  0  0
  -17.1607   23.2265  -37.1912 C   0  0  0  0  0  0  0  0  0  0  0  0
  -16.6783   22.7541  -36.0954 C   0  0  0  0  0  0  0  0  0  0  0  0
  -15.5281   23.3307  -35.2266 C   0  0  0  0  0  0  0  0  0  0  0  0
  -16.9719   21.4978  -35.2702 C   0  0  0  0  0  0  0  0  0  0  0  0
  -15.6793   20.6495  -35.1661 C   0  0  2  0  0  0  0  0  0  0  0  0
  -15.0416   20.5438  -36.5318 C   0  0  0  0  0  0  0  0  0  0  0  0
  -16.0712   19.2413  -34.7769 C   0  0  0  0  0  0  0  0  0  0  0  0
  -16.2355   19.0092  -33.3203 C   0  0  2  0  0  0  0  0  0  0  0  0
  -14.9940   18.6007  -32.7841 O   0  0  0  0  0  0  0  0  0  0  0  0
  -13.9602   19.4073  -33.2232 C   0  0  0  0  0  0  0  0  0  0  0  0
  -17.2672   17.9233  -33.1160 C   0  0  1  0  0  0  0  0  0  0  0  0
  -18.4071   18.2858  -33.7549 O   0  0  0  0  0  0  0  0  0  0  0  0
  -19.3384   17.2485  -33.9213 C   0  0  1  0  0  0  0  0  0  0  0  0
  -19.4431   16.7102  -32.5978 O   0  0  0  0  0  0  0  0  0  0  0  0
  -20.5713   17.8459  -34.3979 C   0  0  0  0  0  0  0  0  0  0  0  0
  -20.4460   19.1449  -34.6440 O   0  0  0  0  0  0  0  0  0  0  0  0
  -21.8985   17.3692  -34.6590 C   0  0  0  0  0  0  0  0  0  0  0  0
  -22.8390   17.7957  -33.8464 O   0  0  0  0  0  0  0  0  0  0  0  0
  -22.4228   16.5038  -35.6569 N   0  0  0  0  0  0  0  0  0  0  0  0
  -23.8793   16.1666  -35.5686 C   0  0  0  0  0  0  0  0  0  0  0  0
  -23.9649   14.6587  -35.5378 C   0  0  0  0  0  0  0  0  0  0  0  0
  -23.4395   14.0477  -36.8214 C   0  0  0  0  0  0  0  0  0  0  0  0
  -22.7984   15.1440  -37.6022 C   0  0  0  0  0  0  0  0  0  0  0  0
  -21.7785   15.9039  -36.7630 C   0  0  1  0  0  0  0  0  0  0  0  0
  -21.0813   16.7989  -37.7113 C   0  0  0  0  0  0  0  0  0  0  0  0
  -20.2865   16.1140  -38.4949 O   0  0  0  0  0  0  0  0  0  0  0  0
  -21.1027   18.0855  -37.9120 O   0  0  0  0  0  0  0  0  0  0  0  0
  -21.7088   19.2336  -38.1515 C   0  0  2  0  0  0  0  0  0  0  0  0
  -22.8258   19.2535  -39.1789 C   0  0  0  0  0  0  0  0  0  0  0  0
  -22.8930   18.1384  -40.1460 C   0  0  0  0  0  0  0  0  0  0  0  0
  -23.7201   20.1991  -39.2040 C   0  0  0  0  0  0  0  0  0  0  0  0
  -23.6024   21.6317  -39.0042 C   0  0  2  0  0  0  0  0  0  0  0  0
  -24.9235   22.2050  -38.4546 C   0  0  0  0  0  0  0  0  0  0  0  0
  -25.1582   23.5310  -39.0791 C   0  0  0  0  0  0  0  0  0  0  0  0
  -23.9922   24.4779  -38.9251 C   0  0  1  0  0  0  0  0  0  0  0  0
  -23.9677   24.9877  -37.6485 O   0  0  0  0  0  0  0  0  0  0  0  0
  -22.6845   23.8496  -39.2527 C   0  0  2  0  0  0  0  0  0  0  0  0
  -21.8564   24.6185  -40.0206 O   0  0  0  0  0  0  0  0  0  0  0  0
  -21.2151   23.9372  -41.0346 C   0  0  0  0  0  0  0  0  0  0  0  0
  -23.0333   22.5202  -40.0205 C   0  0  0  0  0  0  0  0  0  0  0  0
  -20.6559   20.2184  -38.7185 C   0  0  2  0  0  0  0  0  0  0  0  0
  -20.4035   19.9104  -40.1664 C   0  0  0  0  0  0  0  0  0  0  0  0
  -19.3620   20.0851  -37.9530 C   0  0  1  0  0  0  0  0  0  0  0  0
  -19.2132   18.8018  -37.3754 O   0  0  0  0  0  0  0  0  0  0  0  0
  -18.1568   20.3569  -38.8089 C   0  0  0  0  0  0  0  0  0  0  0  0
  -17.8955   21.7653  -39.0923 C   0  0  0  0  0  0  0  0  0  0  0  0
  -17.3424   21.9903  -40.1897 O   0  0  0  0  0  0  0  0  0  0  0  0
  -18.8349   16.1510  -34.7577 C   0  0  2  0  0  0  0  0  0  0  0  0
  -19.3748   14.8197  -34.2084 C   0  0  0  0  0  0  0  0  0  0  0  0
  -17.3220   15.9939  -34.7121 C   0  0  0  0  0  0  0  0  0  0  0  0
  -16.7560   16.5558  -33.4432 C   0  0  2  0  0  0  0  0  0  0  0  0
  -16.8843   15.6715  -32.3814 O   0  0  0  0  0  0  0  0  0  0  0  0
  -15.6679   15.5470  -31.7135 C   0  0  0  0  0  0  0  0  0  0  0  0
  1  2  1  0
  3  2  1  6
  3  4  1  0
  4  5  2  0
  5  6  1  0
  5  7  1  0
  7  8  1  0
  8  9  1  6
  8 10  1  0
 10 11  1  0
 11 12  1  6
 12 13  1  0
 11 14  1  0
 14 15  1  6
 15 16  1  0
 16 17  1  1
 16 18  1  0
 18 19  2  0
 18 20  1  0
 20 21  2  0
 20 22  1  0
 22 23  1  0
 23 24  1  0
 24 25  1  0
 25 26  1  0
 27 26  1  6
 27 28  1  0
 28 29  2  0
 28 30  1  0
 30 31  1  0
 31 32  1  6
 32 33  1  0
 32 34  2  0
 35 34  1  6
 35 36  1  0
 36 37  1  0
 37 38  1  0
 38 39  1  1
 38 40  1  0
 40 41  1  6
 41 42  1  0
 40 43  1  0
 31 44  1  0
 44 45  1  6
 44 46  1  0
 46 47  1  6
 46 48  1  0
 48 49  1  0
 49 50  2  0
 16 51  1  0
 51 52  1  1
 51 53  1  0
 53 54  1  0
 54 55  1  1
 55 56  1  0
 49  3  1  0
 54 14  1  0
 27 22  1  0
 43 35  1  0
M  END
$$$$
