
     RDKit          3D

 29 32  0  0  0  0  0  0  0  0999 V2000
  -18.5425   -4.3019  -30.9213 C   0  0  0  0  0  0  0  0  0  0  0  0
  -17.9211   -3.9361  -32.1357 O   0  0  0  0  0  0  0  0  0  0  0  0
  -16.5717   -4.2203  -32.3340 C   0  0  0  0  0  0  0  0  0  0  0  0
  -15.9293   -3.7242  -33.4488 C   0  0  0  0  0  0  0  0  0  0  0  0
  -14.6108   -3.9986  -33.6479 C   0  0  0  0  0  0  0  0  0  0  0  0
  -13.9237   -4.7781  -32.7229 C   0  0  0  0  0  0  0  0  0  0  0  0
  -12.5738   -5.0583  -32.9279 O   0  0  0  0  0  0  0  0  0  0  0  0
  -11.9507   -4.6182  -34.1003 C   0  0  0  0  0  0  0  0  0  0  0  0
  -14.5481   -5.2884  -31.5938 C   0  0  0  0  0  0  0  0  0  0  0  0
  -13.7414   -6.1069  -30.6639 C   0  0  0  0  0  0  0  0  0  0  0  0
  -12.8456   -7.0407  -31.0716 N   0  0  0  0  0  0  0  0  0  0  0  0
  -12.3009   -7.5859  -30.0140 N   0  0  0  0  0  0  0  0  0  0  0  0
  -12.8284   -7.0215  -28.9304 C   0  0  0  0  0  0  0  0  0  0  0  0
  -13.7108   -6.1152  -29.3163 N   0  0  0  0  0  0  0  0  0  0  0  0
  -14.4174   -5.3682  -28.3888 N   0  0  0  0  0  0  0  0  0  0  0  0
  -14.3758   -5.3894  -27.1297 C   0  0  0  0  0  0  0  0  0  0  0  0
  -15.2500   -4.4727  -26.4107 C   0  0  0  0  0  0  0  0  0  0  0  0
  -16.1475   -3.6656  -27.0412 C   0  0  0  0  0  0  0  0  0  0  0  0
  -16.9768   -2.7922  -26.3205 C   0  0  0  0  0  0  0  0  0  0  0  0
  -16.8831   -2.7495  -24.9594 C   0  0  0  0  0  0  0  0  0  0  0  0
  -17.6930   -1.8924  -24.2134 O   0  0  0  0  0  0  0  0  0  0  0  0
  -19.0974   -2.0553  -24.1456 C   0  0  0  0  0  0  0  0  0  0  0  0
  -15.9851   -3.5535  -24.2930 C   0  0  0  0  0  0  0  0  0  0  0  0
  -15.9260   -3.4769  -22.9278 O   0  0  0  0  0  0  0  0  0  0  0  0
  -14.9905   -4.1654  -22.1278 C   0  0  0  0  0  0  0  0  0  0  0  0
  -15.1793   -4.4070  -25.0415 C   0  0  0  0  0  0  0  0  0  0  0  0
  -13.5260   -6.2535  -26.2568 C   0  0  0  0  0  0  0  0  0  0  0  0
  -12.4969   -7.3351  -27.2337 S   0  0  0  0  0  0  0  0  0  0  0  0
  -15.8590   -4.9976  -31.4250 C   0  0  0  0  0  0  0  0  0  0  0  0
  1  2  1  0
  2  3  1  0
  3  4  2  0
  4  5  1  0
  5  6  2  0
  6  7  1  0
  7  8  1  0
  6  9  1  0
  9 10  1  0
 10 11  2  0
 11 12  1  0
 12 13  2  0
 13 14  1  0
 14 15  1  0
 15 16  2  0
 16 17  1  0
 17 18  2  0
 18 19  1  0
 19 20  2  0
 20 21  1  0
 21 22  1  0
 20 23  1  0
 23 24  1  0
 24 25  1  0
 23 26  2  0
 16 27  1  0
 27 28  1  0
  9 29  2  0
 29  3  1  0
 14 10  1  0
 26 17  1  0
 28 13  1  0
M  END
$$$$
