
     RDKit          3D

 14 14  0  0  0  0  0  0  0  0999 V2000
  -19.9011   37.0307  -26.5436 C   0  0  0  0  0  0  0  0  0  0  0  0
  -20.5984   37.1716  -25.1882 C   0  0  0  0  0  0  0  0  0  0  0  0
  -19.8753   36.3378  -24.2666 N   0  0  0  0  0  0  0  0  0  0  0  0
  -18.8603   36.9321  -23.4550 C   0  0  0  0  0  0  0  0  0  0  0  0
  -18.1209   36.1901  -22.6116 N   0  0  0  0  0  0  0  0  0  0  0  0
  -17.1611   36.7312  -21.8395 C   0  0  0  0  0  0  0  0  0  0  0  0
  -16.1842   35.7876  -20.7315 Cl  0  0  0  0  0  0  0  0  0  0  0  0
  -16.9567   38.0505  -21.9333 N   0  0  0  0  0  0  0  0  0  0  0  0
  -17.6555   38.8499  -22.7514 C   0  0  0  0  0  0  0  0  0  0  0  0
  -17.3883   40.2344  -22.8003 N   0  0  0  0  0  0  0  0  0  0  0  0
  -18.0849   41.0806  -23.7197 C   0  0  0  0  0  0  0  0  0  0  0  0
  -17.2672   42.2809  -24.1736 C   0  0  0  0  0  0  0  0  0  0  0  0
  -19.3362   41.6732  -23.0630 C   0  0  0  0  0  0  0  0  0  0  0  0
  -18.6041   38.2577  -23.5022 N   0  0  0  0  0  0  0  0  0  0  0  0
  1  2  1  0
  2  3  1  0
  3  4  1  0
  4  5  2  0
  5  6  1  0
  6  7  1  0
  6  8  2  0
  8  9  1  0
  9 10  1  0
 10 11  1  0
 11 12  1  0
 11 13  1  0
  9 14  2  0
 14  4  1  0
M  END
$$$$
