
     RDKit          3D

 22 22  0  0  0  0  0  0  0  0999 V2000
  -19.2740   37.5648  -22.0440 Cl  0  0  0  0  0  0  0  0  0  0  0  0
  -19.3541   43.2755  -21.7747 N   0  0  0  0  0  0  0  0  0  0  0  0
  -19.8016   42.0755  -21.8192 C   0  0  0  0  0  0  0  0  0  0  0  0
  -21.1963   41.8675  -21.8351 N   0  0  0  0  0  0  0  0  0  0  0  0
  -18.9040   40.9352  -21.8532 C   0  0  0  0  0  0  0  0  0  0  0  0
  -17.6396   41.0177  -22.4369 C   0  0  0  0  0  0  0  0  0  0  0  0
  -16.7822   39.9432  -22.4741 C   0  0  0  0  0  0  0  0  0  0  0  0
  -17.1313   38.7236  -21.9333 C   0  0  0  0  0  0  0  0  0  0  0  0
  -16.2478   37.6067  -21.9686 N   0  0  0  0  0  0  0  0  0  0  0  0
  -16.6750   36.5209  -22.4388 N   0  0  0  0  0  0  0  0  0  0  0  0
  -17.9732   36.4349  -22.9046 N   0  0  0  0  0  0  0  0  0  0  0  0
  -18.7075   35.2387  -22.7003 C   0  0  0  0  0  0  0  0  0  0  0  0
  -18.1742   34.1460  -22.0491 C   0  0  0  0  0  0  0  0  0  0  0  0
  -18.9149   33.0047  -21.8696 C   0  0  0  0  0  0  0  0  0  0  0  0
  -20.2115   32.8681  -22.3141 C   0  0  0  0  0  0  0  0  0  0  0  0
  -20.9896   31.6561  -22.1202 C   0  0  0  0  0  0  0  0  0  0  0  0
  -20.4363   30.5057  -22.0612 N   0  0  0  0  0  0  0  0  0  0  0  0
  -22.3969   31.7402  -21.9923 N   0  0  0  0  0  0  0  0  0  0  0  0
  -20.7442   33.9604  -22.9649 C   0  0  0  0  0  0  0  0  0  0  0  0
  -20.0217   35.1143  -23.1565 C   0  0  0  0  0  0  0  0  0  0  0  0
  -18.3911   38.6146  -21.3431 C   0  0  0  0  0  0  0  0  0  0  0  0
  -19.2296   39.7055  -21.3195 C   0  0  0  0  0  0  0  0  0  0  0  0
  2  3  2  0
  3  4  1  0
  3  5  1  0
  5  6  2  0
  6  7  1  0
  7  8  2  0
  8  9  1  0
  9 10  2  3
 10 11  1  0
 11 12  1  0
 12 13  2  0
 13 14  1  0
 14 15  2  0
 15 16  1  0
 16 17  2  0
 16 18  1  0
 15 19  1  0
 19 20  2  0
  8 21  1  0
 21 22  2  0
 22  5  1  0
 20 12  1  0
M  END
$$$$
