
     RDKit          3D

 29 32  0  0  0  0  0  0  0  0999 V2000
  -19.5488   15.0946  -30.5414 O   0  0  0  0  0  0  0  0  0  0  0  0
  -19.7709   14.1819  -31.3458 C   0  0  0  0  0  0  0  0  0  0  0  0
  -18.6469   13.5402  -31.9004 O   0  0  0  0  0  0  0  0  0  0  0  0
  -21.1431   13.7492  -31.7379 C   0  0  0  0  0  0  0  0  0  0  0  0
  -21.2219   13.6349  -33.2438 C   0  0  0  0  0  0  0  0  0  0  0  0
  -21.0802   14.9460  -33.8380 N   0  0  0  0  0  0  0  0  0  0  0  0
  -20.0485   15.2974  -34.6244 C   0  0  0  0  0  0  0  0  0  0  0  0
  -20.2304   16.6144  -35.0167 C   0  0  0  0  0  0  0  0  0  0  0  0
  -21.4121   17.0763  -34.4488 C   0  0  0  0  0  0  0  0  0  0  0  0
  -22.0705   18.2871  -34.4995 C   0  0  0  0  0  0  0  0  0  0  0  0
  -23.2534   18.4319  -33.8087 C   0  0  0  0  0  0  0  0  0  0  0  0
  -23.7275   17.3571  -33.0956 C   0  0  0  0  0  0  0  0  0  0  0  0
  -23.0927   16.1425  -33.0286 C   0  0  0  0  0  0  0  0  0  0  0  0
  -21.9011   15.9864  -33.7205 C   0  0  0  0  0  0  0  0  0  0  0  0
  -19.1977   17.2083  -35.8968 C   0  0  0  0  0  0  0  0  0  0  0  0
  -17.8561   16.9288  -35.2474 C   0  0  2  0  0  0  0  0  0  0  0  0
  -16.8454   17.4449  -36.1292 N   0  0  0  0  0  0  0  0  0  0  0  0
  -15.8642   18.6180  -35.3299 S   0  0  0  0  0  6  0  0  0  0  0  0
  -16.6278   19.9283  -35.3968 O   0  0  0  0  0  0  0  0  0  0  0  0
  -14.6005   18.8509  -36.1358 O   0  0  0  0  0  0  0  0  0  0  0  0
  -15.5092   18.1851  -33.6975 C   0  0  0  0  0  0  0  0  0  0  0  0
  -14.7121   17.1161  -33.3879 C   0  0  0  0  0  0  0  0  0  0  0  0
  -14.4497   16.8035  -32.0535 C   0  0  0  0  0  0  0  0  0  0  0  0
  -14.9733   17.5452  -31.0155 C   0  0  0  0  0  0  0  0  0  0  0  0
  -14.7189   17.2419  -29.7274 F   0  0  0  0  0  0  0  0  0  0  0  0
  -15.7770   18.6225  -31.3418 C   0  0  0  0  0  0  0  0  0  0  0  0
  -16.0398   18.9363  -32.6568 C   0  0  0  0  0  0  0  0  0  0  0  0
  -17.6521   15.4806  -34.9051 C   0  0  0  0  0  0  0  0  0  0  0  0
  -18.8482   14.6069  -35.1162 C   0  0  0  0  0  0  0  0  0  0  0  0
  1  2  2  0
  2  3  1  0
  2  4  1  0
  4  5  1  0
  5  6  1  0
  6  7  1  0
  7  8  2  0
  8  9  1  0
  9 10  2  0
 10 11  1  0
 11 12  2  0
 12 13  1  0
 13 14  2  0
  8 15  1  0
 15 16  1  0
 16 17  1  6
 17 18  1  0
 18 19  2  0
 18 20  2  0
 18 21  1  0
 21 22  2  0
 22 23  1  0
 23 24  2  0
 24 25  1  0
 24 26  1  0
 26 27  2  0
 16 28  1  0
 28 29  1  0
 14  6  1  0
 27 21  1  0
 29  7  1  0
 14  9  1  0
M  END
$$$$
