
     RDKit          3D

 34 37  0  0  0  0  0  0  0  0999 V2000
  -19.3568   31.9023  -19.8399 F   0  0  0  0  0  0  0  0  0  0  0  0
  -20.0315   32.0006  -21.0414 C   0  0  0  0  0  0  0  0  0  0  0  0
  -19.3149   31.2576  -21.9695 F   0  0  0  0  0  0  0  0  0  0  0  0
  -21.3194   31.5528  -20.9370 F   0  0  0  0  0  0  0  0  0  0  0  0
  -19.9702   33.4227  -21.5357 C   0  0  0  0  0  0  0  0  0  0  0  0
  -19.5205   34.4248  -20.7057 C   0  0  0  0  0  0  0  0  0  0  0  0
  -19.4527   35.7216  -21.1220 C   0  0  0  0  0  0  0  0  0  0  0  0
  -19.8360   36.0836  -22.4038 C   0  0  0  0  0  0  0  0  0  0  0  0
  -19.7620   37.4707  -22.8449 C   0  0  0  0  0  0  0  0  0  0  0  0
  -18.8589   38.3043  -22.4161 C   0  0  0  0  0  0  0  0  0  0  0  0
  -18.7996   39.7054  -22.9107 C   0  0  0  0  0  0  0  0  0  0  0  0
  -18.5661   40.7987  -22.1762 N   0  0  0  0  0  0  0  0  0  0  0  0
  -18.5874   41.9115  -22.9801 C   0  0  0  0  0  0  0  0  0  0  0  0
  -18.3972   43.3026  -22.4865 C   0  0  0  0  0  0  0  0  0  0  0  0
  -17.0975   43.7024  -22.5975 O   0  0  0  0  0  0  0  0  0  0  0  0
  -15.9834   43.6219  -21.8392 C   0  0  0  0  0  0  0  0  0  0  0  0
  -15.6809   42.5997  -20.9717 C   0  0  0  0  0  0  0  0  0  0  0  0
  -14.5099   42.5676  -20.2050 C   0  0  0  0  0  0  0  0  0  0  0  0
  -13.5929   43.5871  -20.2952 C   0  0  0  0  0  0  0  0  0  0  0  0
  -12.3354   43.5896  -19.4964 C   0  0  0  0  0  0  0  0  0  0  0  0
  -12.4373   44.4003  -18.2321 C   0  0  0  0  0  0  0  0  0  0  0  0
  -11.0652   44.4787  -17.6091 C   0  0  0  0  0  0  0  0  0  0  0  0
  -11.1337   45.3151  -16.3619 C   0  0  0  0  0  0  0  0  0  0  0  0
  -11.0693   44.4725  -15.2078 N   0  0  0  0  0  0  0  0  0  0  0  0
  -11.9027   44.4883  -14.1612 C   0  0  0  0  0  0  0  0  0  0  0  0
  -11.4880   43.5269  -13.2828 C   0  0  0  0  0  0  0  0  0  0  0  0
  -10.3928   42.9497  -13.8416 N   0  0  0  0  0  0  0  0  0  0  0  0
  -10.1643   43.5376  -14.9978 N   0  0  0  0  0  0  0  0  0  0  0  0
  -13.8797   44.6206  -21.1612 C   0  0  0  0  0  0  0  0  0  0  0  0
  -15.0217   44.6593  -21.9133 C   0  0  0  0  0  0  0  0  0  0  0  0
  -18.8469   41.4063  -24.2254 C   0  0  0  0  0  0  0  0  0  0  0  0
  -18.9646   40.0992  -24.1380 O   0  0  0  0  0  0  0  0  0  0  0  0
  -20.2800   35.0760  -23.2147 C   0  0  0  0  0  0  0  0  0  0  0  0
  -20.3598   33.7382  -22.8137 C   0  0  0  0  0  0  0  0  0  0  0  0
  1  2  1  0
  2  3  1  0
  2  4  1  0
  2  5  1  0
  5  6  2  0
  6  7  1  0
  7  8  2  0
  8  9  1  0
  9 10  2  0
 10 11  1  0
 11 12  2  0
 12 13  1  0
 13 14  1  0
 14 15  1  0
 15 16  1  0
 16 17  2  0
 17 18  1  0
 18 19  2  0
 19 20  1  0
 20 21  1  0
 21 22  1  0
 22 23  1  0
 23 24  1  0
 24 25  1  0
 25 26  2  0
 26 27  1  0
 27 28  2  0
 19 29  1  0
 29 30  2  0
 13 31  2  0
 31 32  1  0
  8 33  1  0
 33 34  2  0
 34  5  1  0
 32 11  1  0
 30 16  1  0
 28 24  1  0
M  END
$$$$
