
     RDKit          3D

 18 20  0  0  0  0  0  0  0  0999 V2000
  -18.9884   45.8923  -25.3689 O   0  0  0  0  0  0  0  0  0  0  0  0
  -18.9125   44.5964  -24.9313 C   0  0  0  0  0  0  0  0  0  0  0  0
  -19.7774   43.6048  -25.3550 C   0  0  0  0  0  0  0  0  0  0  0  0
  -19.6920   42.3061  -24.9088 C   0  0  0  0  0  0  0  0  0  0  0  0
  -18.7150   41.9725  -24.0094 C   0  0  0  0  0  0  0  0  0  0  0  0
  -18.6054   40.5895  -23.5190 C   0  0  0  0  0  0  0  0  0  0  0  0
  -17.7220   40.1552  -22.5792 N   0  0  0  0  0  0  0  0  0  0  0  0
  -17.8994   38.8395  -22.3734 C   0  0  0  0  0  0  0  0  0  0  0  0
  -17.2901   37.9160  -21.5497 C   0  0  0  0  0  0  0  0  0  0  0  0
  -17.6738   36.5856  -21.5306 C   0  0  0  0  0  0  0  0  0  0  0  0
  -17.0707   35.6451  -20.7079 O   0  0  0  0  0  0  0  0  0  0  0  0
  -18.6963   36.2025  -22.3692 C   0  0  0  0  0  0  0  0  0  0  0  0
  -19.3045   37.1431  -23.1967 C   0  0  0  0  0  0  0  0  0  0  0  0
  -20.7233   36.6347  -24.3668 Br  0  0  0  0  0  0  0  0  0  0  0  0
  -18.9218   38.4696  -23.2156 C   0  0  0  0  0  0  0  0  0  0  0  0
  -19.2951   39.5542  -23.8662 O   0  0  0  0  0  0  0  0  0  0  0  0
  -17.8399   42.9161  -23.5636 C   0  0  0  0  0  0  0  0  0  0  0  0
  -17.9404   44.2003  -24.0180 C   0  0  0  0  0  0  0  0  0  0  0  0
  1  2  1  0
  2  3  2  0
  3  4  1  0
  4  5  2  0
  5  6  1  0
  6  7  2  0
  7  8  1  0
  8  9  2  0
  9 10  1  0
 10 11  1  0
 10 12  2  0
 12 13  1  0
 13 14  1  0
 13 15  2  0
 15 16  1  0
  5 17  1  0
 17 18  2  0
 18  2  1  0
 16  6  1  0
 15  8  1  0
M  END
$$$$
