
     RDKit          3D

 16 16  0  0  0  0  0  0  0  0999 V2000
  -18.1255   40.6605  -20.3276 N   0  0  0  0  0  0  0  0  0  0  0  0
  -18.0616   40.2301  -21.9970 S   0  0  0  0  0  6  0  0  0  0  0  0
  -19.0203   41.0793  -22.7629 O   0  0  0  0  0  0  0  0  0  0  0  0
  -16.6642   40.3301  -22.5379 O   0  0  0  0  0  0  0  0  0  0  0  0
  -18.5602   38.5537  -22.2027 C   0  0  0  0  0  0  0  0  0  0  0  0
  -19.7803   38.2134  -22.7182 C   0  0  0  0  0  0  0  0  0  0  0  0
  -20.1000   36.8777  -22.8492 C   0  0  0  0  0  0  0  0  0  0  0  0
  -21.6725   36.4201  -23.5135 Cl  0  0  0  0  0  0  0  0  0  0  0  0
  -19.2400   35.8688  -22.4818 C   0  0  0  0  0  0  0  0  0  0  0  0
  -19.6161   34.1736  -22.6354 Cl  0  0  0  0  0  0  0  0  0  0  0  0
  -18.0091   36.2216  -21.9617 C   0  0  0  0  0  0  0  0  0  0  0  0
  -16.8418   35.0199  -21.4635 S   0  0  0  0  0  6  0  0  0  0  0  0
  -16.4056   34.0956  -22.8490 N   0  0  0  0  0  0  0  0  0  0  0  0
  -17.3900   34.1289  -20.3887 O   0  0  0  0  0  0  0  0  0  0  0  0
  -15.6188   35.7536  -20.9322 O   0  0  0  0  0  0  0  0  0  0  0  0
  -17.6955   37.5523  -21.8333 C   0  0  0  0  0  0  0  0  0  0  0  0
  1  2  1  0
  2  3  2  0
  2  4  2  0
  2  5  1  0
  5  6  2  0
  6  7  1  0
  7  8  1  0
  7  9  2  0
  9 10  1  0
  9 11  1  0
 11 12  1  0
 12 13  1  0
 12 14  2  0
 12 15  2  0
 11 16  2  0
 16  5  1  0
M  END
$$$$
