
     RDKit          3D

 12 12  0  0  0  0  0  0  0  0999 V2000
  -18.3816   41.0482  -21.8185 N   0  0  0  0  0  0  0  0  0  0  0  0
  -18.2682   39.6514  -22.0058 C   0  0  0  0  0  0  0  0  0  0  0  0
  -17.4269   38.8906  -21.1870 C   0  0  0  0  0  0  0  0  0  0  0  0
  -17.3391   37.5294  -21.3964 C   0  0  0  0  0  0  0  0  0  0  0  0
  -18.0664   36.9007  -22.4001 C   0  0  0  0  0  0  0  0  0  0  0  0
  -17.9013   35.1758  -22.6019 S   0  0  0  0  0  6  0  0  0  0  0  0
  -17.8633   34.7685  -24.2623 N   0  0  0  0  0  0  0  0  0  0  0  0
  -16.6390   34.6547  -21.9558 O   0  0  0  0  0  0  0  0  0  0  0  0
  -19.0545   34.4962  -21.8803 O   0  0  0  0  0  0  0  0  0  0  0  0
  -18.9024   37.6436  -23.2168 C   0  0  0  0  0  0  0  0  0  0  0  0
  -18.9882   39.0142  -23.0028 C   0  0  0  0  0  0  0  0  0  0  0  0
  -19.8020   39.7747  -23.7892 F   0  0  0  0  0  0  0  0  0  0  0  0
  1  2  1  0
  2  3  2  0
  3  4  1  0
  4  5  2  0
  5  6  1  0
  6  7  1  0
  6  8  2  0
  6  9  2  0
  5 10  1  0
 10 11  2  0
 11 12  1  0
 11  2  1  0
M  END
$$$$
