
     RDKit          3D

 20 21  0  0  0  0  0  0  0  0999 V2000
  -26.3496   14.4873  -29.5237 C   0  0  0  0  0  0  0  0  0  0  0  0
  -25.5179   15.3286  -28.7406 O   0  0  0  0  0  0  0  0  0  0  0  0
  -25.9098   16.6380  -28.5326 C   0  0  0  0  0  0  0  0  0  0  0  0
  -26.1088   17.5093  -29.6028 C   0  0  0  0  0  0  0  0  0  0  0  0
  -26.5017   18.8137  -29.3190 C   0  0  0  0  0  0  0  0  0  0  0  0
  -26.6943   19.2546  -28.0344 C   0  0  0  0  0  0  0  0  0  0  0  0
  -27.0136   20.6247  -27.7785 C   0  0  0  0  0  0  0  0  0  0  0  0
  -28.1960   21.1320  -27.7704 C   0  0  0  0  0  0  0  0  0  0  0  0
  -28.2930   22.6104  -27.5525 C   0  0  0  0  0  0  0  0  0  0  0  0
  -28.3606   23.7371  -27.3675 N   0  0  0  0  0  0  0  0  0  0  0  0
  -29.4027   20.4279  -28.0933 C   0  0  0  0  0  0  0  0  0  0  0  0
  -30.1456   20.5374  -29.2168 C   0  0  0  0  0  0  0  0  0  0  0  0
  -31.2811   19.7303  -29.4397 C   0  0  0  0  0  0  0  0  0  0  0  0
  -31.6628   18.8001  -28.4993 C   0  0  0  0  0  0  0  0  0  0  0  0
  -30.9224   18.6992  -27.3879 N   0  0  0  0  0  0  0  0  0  0  0  0
  -29.8359   19.4665  -27.1695 C   0  0  0  0  0  0  0  0  0  0  0  0
  -26.4875   18.3571  -26.9744 C   0  0  0  0  0  0  0  0  0  0  0  0
  -26.0968   17.0567  -27.2369 C   0  0  0  0  0  0  0  0  0  0  0  0
  -25.8956   16.1863  -26.2136 O   0  0  0  0  0  0  0  0  0  0  0  0
  -26.3414   16.2450  -24.9014 C   0  0  0  0  0  0  0  0  0  0  0  0
  1  2  1  0
  2  3  1  0
  3  4  2  0
  4  5  1  0
  5  6  2  0
  6  7  1  0
  7  8  2  0
  8  9  1  0
  9 10  3  0
  8 11  1  0
 11 12  2  0
 12 13  1  0
 13 14  2  0
 14 15  1  0
 15 16  2  0
  6 17  1  0
 17 18  2  0
 18 19  1  0
 19 20  1  0
 18  3  1  0
 16 11  1  0
M  END
$$$$
