
     RDKit          3D

 35 38  0  0  0  0  0  0  0  0999 V2000
  -22.5711   12.9638  -25.2004 C   0  0  0  0  0  0  0  0  0  0  0  0
  -22.9744   14.1621  -25.5598 C   0  0  0  0  0  0  0  0  0  0  0  0
  -23.9802   14.3781  -26.5872 C   0  0  0  0  0  0  0  0  0  0  0  0
  -23.6655   14.3435  -27.8077 O   0  0  0  0  0  0  0  0  0  0  0  0
  -25.3421   14.6351  -26.2984 N   0  0  0  0  0  0  0  0  0  0  0  0
  -26.2704   15.2099  -27.2125 C   0  0  0  0  0  0  0  0  0  0  0  0
  -26.3720   14.7756  -28.5238 C   0  0  0  0  0  0  0  0  0  0  0  0
  -27.2951   15.3577  -29.3883 C   0  0  0  0  0  0  0  0  0  0  0  0
  -28.1323   16.3742  -28.9795 C   0  0  0  0  0  0  0  0  0  0  0  0
  -28.0455   16.8269  -27.6598 C   0  0  0  0  0  0  0  0  0  0  0  0
  -28.8686   17.8364  -27.2238 O   0  0  0  0  0  0  0  0  0  0  0  0
  -28.6523   19.1619  -27.5447 C   0  0  0  0  0  0  0  0  0  0  0  0
  -27.4665   19.4241  -28.1364 N   0  0  0  0  0  0  0  0  0  0  0  0
  -27.1721   20.6701  -28.4794 C   0  0  0  0  0  0  0  0  0  0  0  0
  -25.9267   20.9296  -29.1102 N   0  0  0  0  0  0  0  0  0  0  0  0
  -25.3396   19.8927  -29.9213 C   0  0  0  0  0  0  0  0  0  0  0  0
  -26.0744   18.8030  -30.3252 C   0  0  0  0  0  0  0  0  0  0  0  0
  -25.5195   17.8148  -31.1069 C   0  0  0  0  0  0  0  0  0  0  0  0
  -24.1878   17.8636  -31.5308 C   0  0  0  0  0  0  0  0  0  0  0  0
  -23.6541   16.8322  -32.3490 N   0  0  0  0  0  0  0  0  0  0  0  0
  -24.4325   15.6156  -32.6311 C   0  0  0  0  0  0  0  0  0  0  0  0
  -24.0201   15.1071  -33.9952 C   0  0  0  0  0  0  0  0  0  0  0  0
  -23.7765   16.2794  -34.8254 N   0  0  0  0  0  0  0  0  0  0  0  0
  -23.7681   15.8661  -36.1934 C   0  0  0  0  0  0  0  0  0  0  0  0
  -22.4656   16.8139  -34.4665 C   0  0  0  0  0  0  0  0  0  0  0  0
  -22.3466   16.8684  -32.9536 C   0  0  0  0  0  0  0  0  0  0  0  0
  -23.4677   18.9595  -31.1178 C   0  0  0  0  0  0  0  0  0  0  0  0
  -24.0219   19.9699  -30.3229 C   0  0  0  0  0  0  0  0  0  0  0  0
  -23.3157   21.0696  -29.9028 O   0  0  0  0  0  0  0  0  0  0  0  0
  -21.9463   21.2792  -29.9312 C   0  0  0  0  0  0  0  0  0  0  0  0
  -28.0353   21.6631  -28.2451 N   0  0  0  0  0  0  0  0  0  0  0  0
  -29.2253   21.4720  -27.6633 C   0  0  0  0  0  0  0  0  0  0  0  0
  -29.5518   20.1711  -27.2967 C   0  0  0  0  0  0  0  0  0  0  0  0
  -31.0879   19.8323  -26.5371 Cl  0  0  0  0  0  0  0  0  0  0  0  0
  -27.1130   16.2255  -26.8210 C   0  0  0  0  0  0  0  0  0  0  0  0
  1  2  2  0
  2  3  1  0
  3  4  2  0
  3  5  1  0
  5  6  1  0
  6  7  2  0
  7  8  1  0
  8  9  2  0
  9 10  1  0
 10 11  1  0
 11 12  1  0
 12 13  2  0
 13 14  1  0
 14 15  1  0
 15 16  1  0
 16 17  2  0
 17 18  1  0
 18 19  2  0
 19 20  1  0
 20 21  1  0
 21 22  1  0
 22 23  1  0
 23 24  1  0
 23 25  1  0
 25 26  1  0
 19 27  1  0
 27 28  2  0
 28 29  1  0
 29 30  1  0
 14 31  2  0
 31 32  1  0
 32 33  2  0
 33 34  1  0
 10 35  2  0
 35  6  1  0
 33 12  1  0
 28 16  1  0
 26 20  1  0
M  END
$$$$
