
     RDKit          3D

 27 29  0  0  0  0  0  0  0  0999 V2000
  -16.2869   29.3405  -22.9830 C   0  0  0  0  0  0  0  0  0  0  0  0
  -17.4201   29.9373  -22.1853 C   0  0  0  0  0  0  0  0  0  0  0  0
  -17.2057   31.4121  -21.9265 C   0  0  0  0  0  0  0  0  0  0  0  0
  -18.7879   32.1614  -21.5361 S   0  0  0  0  0  6  0  0  0  0  0  0
  -19.6087   32.0733  -22.7965 O   0  0  0  0  0  0  0  0  0  0  0  0
  -19.3897   31.3358  -20.4494 O   0  0  0  0  0  0  0  0  0  0  0  0
  -18.6190   33.7675  -20.9917 N   0  0  0  0  0  0  0  0  0  0  0  0
  -18.7995   34.9029  -21.8254 C   0  0  0  0  0  0  0  0  0  0  0  0
  -19.8732   34.9333  -22.6823 C   0  0  0  0  0  0  0  0  0  0  0  0
  -20.0397   36.0443  -23.4819 C   0  0  0  0  0  0  0  0  0  0  0  0
  -19.1411   37.0871  -23.4087 C   0  0  0  0  0  0  0  0  0  0  0  0
  -19.2861   38.2020  -24.1953 F   0  0  0  0  0  0  0  0  0  0  0  0
  -18.0451   37.0877  -22.5534 C   0  0  0  0  0  0  0  0  0  0  0  0
  -17.1450   38.2066  -22.5010 C   0  0  0  0  0  0  0  0  0  0  0  0
  -15.9496   38.0277  -22.9391 O   0  0  0  0  0  0  0  0  0  0  0  0
  -17.4149   39.5296  -22.0106 C   0  0  0  0  0  0  0  0  0  0  0  0
  -16.6567   40.6733  -22.1447 C   0  0  0  0  0  0  0  0  0  0  0  0
  -17.3426   41.6549  -21.5354 N   0  0  0  0  0  0  0  0  0  0  0  0
  -18.4943   41.1898  -21.0243 C   0  0  0  0  0  0  0  0  0  0  0  0
  -19.4967   41.7740  -20.3402 N   0  0  0  0  0  0  0  0  0  0  0  0
  -20.5793   41.1113  -19.9146 C   0  0  0  0  0  0  0  0  0  0  0  0
  -20.6896   39.7629  -20.1813 C   0  0  0  0  0  0  0  0  0  0  0  0
  -22.1152   38.9347  -19.6099 Cl  0  0  0  0  0  0  0  0  0  0  0  0
  -19.6824   39.1314  -20.8795 C   0  0  0  0  0  0  0  0  0  0  0  0
  -18.5809   39.8427  -21.3037 C   0  0  0  0  0  0  0  0  0  0  0  0
  -17.8996   35.9709  -21.7659 C   0  0  0  0  0  0  0  0  0  0  0  0
  -16.8497   35.9001  -20.8796 F   0  0  0  0  0  0  0  0  0  0  0  0
  1  2  1  0
  2  3  1  0
  3  4  1  0
  4  5  2  0
  4  6  2  0
  4  7  1  0
  7  8  1  0
  8  9  2  0
  9 10  1  0
 10 11  2  0
 11 12  1  0
 11 13  1  0
 13 14  1  0
 14 15  2  0
 14 16  1  0
 16 17  2  0
 17 18  1  0
 18 19  1  0
 19 20  2  0
 20 21  1  0
 21 22  2  0
 22 23  1  0
 22 24  1  0
 24 25  2  0
 13 26  2  0
 26 27  1  0
 26  8  1  0
 25 16  1  0
 25 19  1  0
M  END
$$$$
