
     RDKit          3D

 15 15  0  0  0  0  0  0  0  0999 V2000
  -20.6677   33.3362  -23.0704 O   0  0  0  0  0  0  0  0  0  0  0  0
  -19.8341   34.1653  -22.1141 S   0  0  0  0  0  6  0  0  0  0  0  0
  -19.2978   33.3102  -21.0034 O   0  0  0  0  0  0  0  0  0  0  0  0
  -20.8173   35.3698  -21.4706 O   0  0  0  0  0  1  0  0  0  0  0  0
  -18.5155   34.8629  -22.9232 O   0  0  0  0  0  0  0  0  0  0  0  0
  -18.1280   36.1726  -22.6250 C   0  0  0  0  0  0  0  0  0  0  0  0
  -17.2195   36.5650  -21.6676 C   0  0  0  0  0  0  0  0  0  0  0  0
  -17.1582   37.9000  -21.7291 N   0  0  0  0  0  0  0  0  0  0  0  0
  -17.9856   38.3666  -22.6805 C   0  0  0  0  0  0  0  0  0  0  0  0
  -18.2591   39.6574  -23.1043 C   0  0  0  0  0  0  0  0  0  0  0  0
  -19.1727   39.8150  -24.1202 C   0  0  0  0  0  0  0  0  0  0  0  0
  -19.8099   38.7476  -24.7154 C   0  0  0  0  0  0  0  0  0  0  0  0
  -19.5390   37.4826  -24.2967 C   0  0  0  0  0  0  0  0  0  0  0  0
  -18.6208   37.2827  -23.2717 C   0  0  0  0  0  0  0  0  0  0  0  0
  -18.7952   37.2094  -22.9107 K   0  0  0  0  0 15  0  0  0  0  0  0
  1  2  2  0
  2  3  2  0
  2  4  1  0
  2  5  1  0
  5  6  1  0
  6  7  2  0
  7  8  1  0
  8  9  1  0
  9 10  2  0
 10 11  1  0
 11 12  2  0
 12 13  1  0
 13 14  2  0
 14  6  1  0
 14  9  1  0
M  CHG  2   4  -1  15   1
M  END
$$$$
