
     RDKit          3D

 40 43  0  0  0  0  0  0  0  0999 V2000
  -19.7801   41.0333  -19.6728 C   0  0  0  0  0  0  0  0  0  0  0  0
  -18.2899   41.0998  -19.9234 C   0  0  0  0  0  0  0  0  0  0  0  0
  -17.6984   42.0724  -18.9457 C   0  0  0  0  0  0  0  0  0  0  0  0
  -17.9668   41.2430  -21.2466 N   0  0  0  0  0  0  0  0  0  0  0  0
  -18.0525   40.1405  -22.1286 C   0  0  0  0  0  0  0  0  0  0  0  0
  -17.5033   38.8289  -21.6227 C   0  0  0  0  0  0  0  0  0  0  0  0
  -17.6505   37.7495  -22.7086 C   0  0  0  0  0  0  0  0  0  0  0  0
  -17.0893   36.4955  -22.3204 N   0  0  0  0  0  0  0  0  0  0  0  0
  -17.8942   35.2994  -22.4231 C   0  0  0  0  0  0  0  0  0  0  0  0
  -18.8794   35.3342  -23.1847 O   0  0  0  0  0  0  0  0  0  0  0  0
  -17.5629   34.1462  -21.6822 N   0  0  0  0  0  0  0  0  0  0  0  0
  -18.3875   33.0169  -21.5574 C   0  0  0  0  0  0  0  0  0  0  0  0
  -19.4140   32.8173  -20.6852 C   0  0  0  0  0  0  0  0  0  0  0  0
  -20.1537   31.6276  -20.6737 C   0  0  0  0  0  0  0  0  0  0  0  0
  -19.8757   30.6033  -21.5460 C   0  0  0  0  0  0  0  0  0  0  0  0
  -20.6847   29.3546  -21.4968 C   0  0  0  0  0  0  0  0  0  0  0  0
  -21.1372   28.9764  -22.8737 C   0  0  0  0  0  0  0  0  0  0  0  0
  -19.8375   28.2261  -20.9270 C   0  0  0  0  0  0  0  0  0  0  0  0
  -21.8447   29.5750  -20.5677 C   0  0  0  0  0  0  0  0  0  0  0  0
  -18.8501   30.7840  -22.4290 C   0  0  0  0  0  0  0  0  0  0  0  0
  -18.1304   31.9514  -22.4342 C   0  0  0  0  0  0  0  0  0  0  0  0
  -17.2805   42.3325  -21.7829 C   0  0  0  0  0  0  0  0  0  0  0  0
  -18.0589   43.6214  -21.8456 C   0  0  1  0  0  0  0  0  0  0  0  0
  -18.2454   44.1627  -20.5506 O   0  0  0  0  0  0  0  0  0  0  0  0
  -18.6837   45.4379  -20.8975 C   0  0  1  0  0  0  0  0  0  0  0  0
  -19.0315   46.2743  -19.7985 N   0  0  0  0  0  0  0  0  0  0  0  0
  -19.0774   45.8263  -18.5179 C   0  0  0  0  0  0  0  0  0  0  0  0
  -19.4403   46.8624  -17.6816 C   0  0  0  0  0  0  0  0  0  0  0  0
  -19.6598   46.8063  -15.7741 Br  0  0  0  0  0  0  0  0  0  0  0  0
  -19.6112   47.9540  -18.5164 C   0  0  0  0  0  0  0  0  0  0  0  0
  -19.9753   49.2370  -18.1670 C   0  0  0  0  0  0  0  0  0  0  0  0
  -20.2293   49.5850  -16.8135 N   0  0  0  0  0  0  0  0  0  0  0  0
  -20.0771   50.1408  -19.1738 N   0  0  0  0  0  0  0  0  0  0  0  0
  -19.8272   49.7676  -20.4439 C   0  0  0  0  0  0  0  0  0  0  0  0
  -19.4697   48.5044  -20.7800 N   0  0  0  0  0  0  0  0  0  0  0  0
  -19.3559   47.5765  -19.8189 C   0  0  0  0  0  0  0  0  0  0  0  0
  -17.4862   45.9203  -21.6957 C   0  0  2  0  0  0  0  0  0  0  0  0
  -17.7652   47.0565  -22.4298 O   0  0  0  0  0  0  0  0  0  0  0  0
  -17.2782   44.6968  -22.6020 C   0  0  2  0  0  0  0  0  0  0  0  0
  -17.9275   45.0189  -23.8049 O   0  0  0  0  0  0  0  0  0  0  0  0
  1  2  1  0
  2  3  1  0
  2  4  1  0
  4  5  1  0
  5  6  1  0
  6  7  1  0
  7  8  1  0
  8  9  1  0
  9 10  2  0
  9 11  1  0
 11 12  1  0
 12 13  2  0
 13 14  1  0
 14 15  2  0
 15 16  1  0
 16 17  1  0
 16 18  1  0
 16 19  1  0
 15 20  1  0
 20 21  2  0
  4 22  1  0
 23 22  1  1
 23 24  1  0
 24 25  1  0
 25 26  1  1
 26 27  1  0
 27 28  2  0
 28 29  1  0
 28 30  1  0
 30 31  2  0
 31 32  1  0
 31 33  1  0
 33 34  2  0
 34 35  1  0
 35 36  2  0
 25 37  1  0
 37 38  1  6
 37 39  1  0
 39 40  1  6
 21 12  1  0
 39 23  1  0
 36 26  1  0
 36 30  1  0
M  END
$$$$
