
     RDKit          3D

 26 29  0  0  0  0  0  0  0  0999 V2000
  -27.1651   15.1602  -27.8141 O   0  0  0  0  0  0  0  0  0  0  0  0
  -27.5159   16.3650  -27.9421 C   0  0  0  0  0  0  0  0  0  0  0  0
  -26.9840   17.0644  -29.0163 O   0  0  0  0  0  0  0  0  0  0  0  0
  -28.4354   17.0668  -27.0439 C   0  0  0  0  0  0  0  0  0  0  0  0
  -28.1961   16.7734  -25.6465 N   0  0  0  0  0  0  0  0  0  0  0  0
  -27.3572   17.3660  -24.7935 C   0  0  0  0  0  0  0  0  0  0  0  0
  -27.4300   16.7840  -23.5407 C   0  0  0  0  0  0  0  0  0  0  0  0
  -26.6567   17.1625  -22.3314 C   0  0  0  0  0  0  0  0  0  0  0  0
  -25.3274   16.4114  -22.3851 C   0  0  0  0  0  0  0  0  0  0  0  0
  -24.3296   16.2073  -21.8826 N   0  0  0  0  0  0  0  0  0  0  0  0
  -23.3235   15.4266  -22.2388 C   0  0  0  0  0  0  0  0  0  0  0  0
  -22.0966   15.1955  -21.5912 C   0  0  0  0  0  0  0  0  0  0  0  0
  -21.7560   15.7896  -20.4246 F   0  0  0  0  0  0  0  0  0  0  0  0
  -21.2019   14.3305  -22.1641 C   0  0  0  0  0  0  0  0  0  0  0  0
  -20.0111   14.1310  -21.4978 F   0  0  0  0  0  0  0  0  0  0  0  0
  -21.3811   13.6465  -23.3360 C   0  0  0  0  0  0  0  0  0  0  0  0
  -22.6035   13.8729  -23.9873 C   0  0  0  0  0  0  0  0  0  0  0  0
  -22.9232   13.2661  -25.1573 F   0  0  0  0  0  0  0  0  0  0  0  0
  -23.5038   14.7477  -23.4039 C   0  0  0  0  0  0  0  0  0  0  0  0
  -25.1645   15.3060  -23.9122 S   0  0  0  0  0  0  0  0  0  0  0  0
  -28.3703   15.7875  -23.6662 C   0  0  0  0  0  0  0  0  0  0  0  0
  -28.8458   14.8813  -22.7257 C   0  0  0  0  0  0  0  0  0  0  0  0
  -29.8044   13.9552  -23.0801 C   0  0  0  0  0  0  0  0  0  0  0  0
  -30.2781   13.9490  -24.3833 C   0  0  0  0  0  0  0  0  0  0  0  0
  -29.7950   14.8570  -25.3068 C   0  0  0  0  0  0  0  0  0  0  0  0
  -28.8307   15.7976  -24.9726 C   0  0  0  0  0  0  0  0  0  0  0  0
  1  2  2  0
  2  3  1  0
  2  4  1  0
  4  5  1  0
  5  6  1  0
  6  7  2  0
  7  8  1  0
  8  9  1  0
  9 10  2  0
 10 11  1  0
 11 12  2  0
 12 13  1  0
 12 14  1  0
 14 15  1  0
 14 16  2  0
 16 17  1  0
 17 18  1  0
 17 19  2  0
 19 20  1  0
  7 21  1  0
 21 22  2  0
 22 23  1  0
 23 24  2  0
 24 25  1  0
 25 26  2  0
 26  5  1  0
 20  9  1  0
 26 21  1  0
 19 11  1  0
M  END
$$$$
