
     RDKit          3D

 17 19  0  0  0  0  0  0  0  0999 V2000
  -12.2291   12.6547  -32.2812 C   0  0  0  0  0  0  0  0  0  0  0  0
  -13.3234   13.4577  -31.7118 C   0  0  0  0  0  0  0  0  0  0  0  0
  -13.3860   14.8269  -31.8588 C   0  0  0  0  0  0  0  0  0  0  0  0
  -14.4182   15.5662  -31.3193 C   0  0  0  0  0  0  0  0  0  0  0  0
  -15.4384   14.9708  -30.6059 C   0  0  0  0  0  0  0  0  0  0  0  0
  -16.5279   15.8046  -30.0436 C   0  0  0  0  0  0  0  0  0  0  0  0
  -17.3964   16.3274  -31.1089 N   0  0  0  0  0  0  0  0  0  0  0  0
  -17.2416   17.4680  -31.7985 C   0  0  0  0  0  0  0  0  0  0  0  0
  -18.2287   17.6182  -32.6928 N   0  0  0  0  0  0  0  0  0  0  0  0
  -19.0399   16.5568  -32.5833 C   0  0  0  0  0  0  0  0  0  0  0  0
  -20.2133   16.1735  -33.2459 C   0  0  0  0  0  0  0  0  0  0  0  0
  -20.8621   15.0017  -32.9281 C   0  0  0  0  0  0  0  0  0  0  0  0
  -20.3484   14.1910  -31.9405 C   0  0  0  0  0  0  0  0  0  0  0  0
  -19.1940   14.5955  -31.3082 C   0  0  0  0  0  0  0  0  0  0  0  0
  -18.5119   15.7586  -31.5932 C   0  0  0  0  0  0  0  0  0  0  0  0
  -15.3789   13.5998  -30.4568 C   0  0  0  0  0  0  0  0  0  0  0  0
  -14.3369   12.8525  -31.0013 C   0  0  0  0  0  0  0  0  0  0  0  0
  1  2  1  0
  2  3  2  0
  3  4  1  0
  4  5  2  0
  5  6  1  0
  6  7  1  0
  7  8  1  0
  8  9  2  0
  9 10  1  0
 10 11  2  0
 11 12  1  0
 12 13  2  0
 13 14  1  0
 14 15  2  0
  5 16  1  0
 16 17  2  0
 17  2  1  0
 15  7  1  0
 15 10  1  0
M  END
$$$$
