
     RDKit          3D

 29 30  0  0  0  0  0  0  0  0999 V2000
  -14.9906   17.2996  -35.1043 C   0  0  0  0  0  0  0  0  0  0  0  0
  -16.0655   17.9978  -35.6819 N   0  0  0  0  0  0  0  0  0  0  0  0
  -15.8336   19.2464  -36.2854 C   0  0  0  0  0  0  0  0  0  0  0  0
  -15.1921   19.1810  -37.6358 C   0  0  0  0  0  0  0  0  0  0  0  0
  -15.9387   19.5456  -38.7156 O   0  0  0  0  0  0  0  0  0  0  0  0
  -15.7483   19.7160  -40.0218 C   0  0  0  0  0  0  0  0  0  0  0  0
  -16.3064   20.7346  -40.7409 C   0  0  0  0  0  0  0  0  0  0  0  0
  -16.0534   20.8460  -42.1196 C   0  0  0  0  0  0  0  0  0  0  0  0
  -15.2493   19.9441  -42.7690 C   0  0  0  0  0  0  0  0  0  0  0  0
  -14.9854   20.0324  -44.1576 N   0  0  0  0  0  0  0  0  0  0  0  0
  -14.1780   21.3301  -44.9036 S   0  0  0  0  0  6  0  0  0  0  0  0
  -12.5060   21.5429  -44.4076 C   0  0  0  0  0  0  0  0  0  0  0  0
  -14.9173   22.6189  -44.5924 O   0  0  0  0  0  0  0  0  0  0  0  0
  -14.2139   21.0908  -46.3964 O   0  0  0  0  0  0  0  0  0  0  0  0
  -14.6844   18.9126  -42.0433 C   0  0  0  0  0  0  0  0  0  0  0  0
  -14.9395   18.8206  -40.7118 C   0  0  0  0  0  0  0  0  0  0  0  0
  -17.3692   17.5628  -35.4241 C   0  0  0  0  0  0  0  0  0  0  0  0
  -17.4754   16.3497  -34.5360 C   0  0  0  0  0  0  0  0  0  0  0  0
  -18.8705   15.8938  -34.3302 C   0  0  0  0  0  0  0  0  0  0  0  0
  -19.7539   16.6246  -33.5389 C   0  0  0  0  0  0  0  0  0  0  0  0
  -21.0403   16.1580  -33.3754 C   0  0  0  0  0  0  0  0  0  0  0  0
  -21.4731   14.9953  -33.9700 C   0  0  0  0  0  0  0  0  0  0  0  0
  -22.8208   14.5308  -33.7811 N   0  0  0  0  0  0  0  0  0  0  0  0
  -24.0479   15.6611  -33.4081 S   0  0  0  0  0  6  0  0  0  0  0  0
  -23.9221   16.9954  -34.5770 C   0  0  0  0  0  0  0  0  0  0  0  0
  -23.9790   16.1564  -31.9859 O   0  0  0  0  0  0  0  0  0  0  0  0
  -25.3838   14.9795  -33.5468 O   0  0  0  0  0  0  0  0  0  0  0  0
  -20.5924   14.2949  -34.7410 C   0  0  0  0  0  0  0  0  0  0  0  0
  -19.3200   14.7323  -34.9185 C   0  0  0  0  0  0  0  0  0  0  0  0
  1  2  1  0
  2  3  1  0
  3  4  1  0
  4  5  1  0
  5  6  1  0
  6  7  2  0
  7  8  1  0
  8  9  2  0
  9 10  1  0
 10 11  1  0
 11 12  1  0
 11 13  2  0
 11 14  2  0
  9 15  1  0
 15 16  2  0
  2 17  1  0
 17 18  1  0
 18 19  1  0
 19 20  2  0
 20 21  1  0
 21 22  2  0
 22 23  1  0
 23 24  1  0
 24 25  1  0
 24 26  2  0
 24 27  2  0
 22 28  1  0
 28 29  2  0
 16  6  1  0
 29 19  1  0
M  END
$$$$
