
     RDKit          3D

 27 29  0  0  0  0  0  0  0  0999 V2000
  -19.5514   33.7262  -21.2947 C   0  0  0  0  0  0  0  0  0  0  0  0
  -19.1626   35.1291  -21.6195 C   0  0  0  0  0  0  0  0  0  0  0  0
  -19.4026   35.6334  -22.8807 C   0  0  0  0  0  0  0  0  0  0  0  0
  -19.0475   36.8849  -23.1454 N   0  0  0  0  0  0  0  0  0  0  0  0
  -18.4578   37.7241  -22.2633 C   0  0  0  0  0  0  0  0  0  0  0  0
  -18.1366   39.0260  -22.6843 N   0  0  0  0  0  0  0  0  0  0  0  0
  -17.3517   39.9538  -21.9962 C   0  0  0  0  0  0  0  0  0  0  0  0
  -16.9422   39.7164  -20.8379 O   0  0  0  0  0  0  0  0  0  0  0  0
  -17.0053   41.1968  -22.6156 N   0  0  0  0  0  0  0  0  0  0  0  0
  -16.1460   42.1023  -21.9797 C   0  0  0  0  0  0  0  0  0  0  0  0
  -15.3928   41.7364  -20.8919 C   0  0  0  0  0  0  0  0  0  0  0  0
  -14.5677   42.6757  -20.3131 C   0  0  0  0  0  0  0  0  0  0  0  0
  -13.4936   42.2158  -18.7903 Br  0  0  0  0  0  0  0  0  0  0  0  0
  -14.4769   43.9706  -20.7944 C   0  0  0  0  0  0  0  0  0  0  0  0
  -13.5777   44.9628  -20.1495 C   0  0  0  0  0  0  0  0  0  0  0  0
  -15.2430   44.3144  -21.8880 C   0  0  0  0  0  0  0  0  0  0  0  0
  -16.0734   43.4060  -22.4872 C   0  0  0  0  0  0  0  0  0  0  0  0
  -16.8239   43.7911  -23.5805 O   0  0  0  0  0  0  0  0  0  0  0  0
  -18.2266   43.8248  -23.4615 C   0  0  0  0  0  0  0  0  0  0  0  0
  -18.8983   44.3101  -24.7245 C   0  0  2  0  0  0  0  0  0  0  0  0
  -18.6420   45.8109  -24.8052 C   0  0  0  0  0  0  0  0  0  0  0  0
  -19.0056   46.2570  -26.1259 N   0  0  0  0  0  0  0  0  0  0  0  0
  -20.3512   45.8098  -26.3941 C   0  0  0  0  0  0  0  0  0  0  0  0
  -20.9740   45.1152  -25.2092 C   0  0  0  0  0  0  0  0  0  0  0  0
  -20.2429   44.0442  -24.7567 O   0  0  0  0  0  0  0  0  0  0  0  0
  -18.2216   37.2238  -21.0181 C   0  0  0  0  0  0  0  0  0  0  0  0
  -18.5782   35.9343  -20.7173 N   0  0  0  0  0  0  0  0  0  0  0  0
  1  2  1  0
  2  3  2  0
  3  4  1  0
  4  5  2  0
  5  6  1  0
  6  7  1  0
  7  8  2  0
  7  9  1  0
  9 10  1  0
 10 11  2  0
 11 12  1  0
 12 13  1  0
 12 14  2  0
 14 15  1  0
 14 16  1  0
 16 17  2  0
 17 18  1  0
 18 19  1  0
 20 19  1  1
 20 21  1  0
 21 22  1  0
 22 23  1  0
 23 24  1  0
 24 25  1  0
  5 26  1  0
 26 27  2  0
 27  2  1  0
 17 10  1  0
 25 20  1  0
M  END
$$$$
