
     RDKit          3D

 27 29  0  0  0  0  0  0  0  0999 V2000
  -26.0678   24.3428  -32.2207 O   0  0  0  0  0  0  0  0  0  0  0  0
  -26.7507   23.3090  -32.0448 C   0  0  0  0  0  0  0  0  0  0  0  0
  -27.2933   22.7284  -33.2077 O   0  0  0  0  0  0  0  0  0  0  0  0
  -26.9859   22.7212  -30.7268 C   0  0  0  0  0  0  0  0  0  0  0  0
  -28.4411   22.6812  -30.3309 C   0  0  0  0  0  0  0  0  0  0  0  0
  -29.1736   21.5130  -30.9072 C   0  0  0  0  0  0  0  0  0  0  0  0
  -28.8858   20.2303  -30.1545 C   0  0  0  0  0  0  0  0  0  0  0  0
  -29.2753   20.3511  -28.7006 C   0  0  0  0  0  0  0  0  0  0  0  0
  -29.5739   21.7878  -28.3296 C   0  0  0  0  0  0  0  0  0  0  0  0
  -28.4933   22.7217  -28.8178 C   0  0  0  0  0  0  0  0  0  0  0  0
  -28.1034   19.8672  -27.8702 C   0  0  0  0  0  0  0  0  0  0  0  0
  -28.2697   18.3744  -27.7206 C   0  0  0  0  0  0  0  0  0  0  0  0
  -29.3655   18.1382  -26.8137 N   0  0  0  0  0  0  0  0  0  0  0  0
  -29.3866   17.2366  -25.7399 C   0  0  0  0  0  0  0  0  0  0  0  0
  -30.1936   16.0897  -25.8199 C   0  0  0  0  0  0  0  0  0  0  0  0
  -30.2610   15.1744  -24.7959 C   0  0  0  0  0  0  0  0  0  0  0  0
  -31.0467   14.0351  -24.8449 O   0  0  0  0  0  0  0  0  0  0  0  0
  -30.4652   12.8599  -25.3588 C   0  0  0  0  0  0  0  0  0  0  0  0
  -31.3317   11.7920  -25.3501 F   0  0  0  0  0  0  0  0  0  0  0  0
  -30.0793   13.1622  -26.6640 F   0  0  0  0  0  0  0  0  0  0  0  0
  -29.3520   12.4792  -24.6012 F   0  0  0  0  0  0  0  0  0  0  0  0
  -29.5042   15.4167  -23.6731 C   0  0  0  0  0  0  0  0  0  0  0  0
  -28.7002   16.5525  -23.5850 C   0  0  0  0  0  0  0  0  0  0  0  0
  -28.6344   17.4706  -24.6161 C   0  0  0  0  0  0  0  0  0  0  0  0
  -27.5928   18.8952  -24.4512 Cl  0  0  0  0  0  0  0  0  0  0  0  0
  -30.5704   18.9382  -27.0819 C   0  0  0  0  0  0  0  0  0  0  0  0
  -30.5130   19.5233  -28.4807 C   0  0  0  0  0  0  0  0  0  0  0  0
  1  2  2  0
  2  3  1  0
  2  4  1  0
  4  5  1  0
  5  6  1  0
  6  7  1  0
  7  8  1  0
  8  9  1  0
  9 10  1  0
  8 11  1  0
 11 12  1  0
 12 13  1  0
 13 14  1  0
 14 15  2  0
 15 16  1  0
 16 17  1  0
 17 18  1  0
 18 19  1  0
 18 20  1  0
 18 21  1  0
 16 22  2  0
 22 23  1  0
 23 24  2  0
 24 25  1  0
 13 26  1  0
 26 27  1  0
 10  5  1  0
 24 14  1  0
 27  8  1  0
M  END
$$$$
