
     RDKit          3D

 27 30  0  0  0  0  0  0  0  0999 V2000
  -13.3365   15.2724  -31.9081 C   0  0  0  0  0  0  0  0  0  0  0  0
  -14.5337   16.1193  -32.0386 C   0  0  0  0  0  0  0  0  0  0  0  0
  -15.3996   15.9592  -33.0890 C   0  0  0  0  0  0  0  0  0  0  0  0
  -16.5052   16.7523  -33.1957 C   0  0  0  0  0  0  0  0  0  0  0  0
  -17.4257   16.5425  -34.3453 C   0  0  0  0  0  0  0  0  0  0  0  0
  -16.7935   17.2044  -35.5348 C   0  0  0  0  0  0  0  0  0  0  0  0
  -18.7828   16.9202  -34.0880 N   0  0  0  0  0  0  0  0  0  0  0  0
  -19.7798   15.9250  -33.9721 C   0  0  0  0  0  0  0  0  0  0  0  0
  -19.4438   14.6039  -33.7710 C   0  0  0  0  0  0  0  0  0  0  0  0
  -20.4676   13.6569  -33.6724 C   0  0  0  0  0  0  0  0  0  0  0  0
  -21.7718   14.0418  -33.7740 C   0  0  0  0  0  0  0  0  0  0  0  0
  -22.1019   15.3707  -33.9757 C   0  0  0  0  0  0  0  0  0  0  0  0
  -21.1121   16.3163  -34.0755 C   0  0  0  0  0  0  0  0  0  0  0  0
  -16.7617   17.7217  -32.2495 C   0  0  0  0  0  0  0  0  0  0  0  0
  -17.8802   18.5091  -32.3856 N   0  0  0  0  0  0  0  0  0  0  0  0
  -18.1154   19.4492  -31.4626 C   0  0  0  0  0  0  0  0  0  0  0  0
  -19.2750   20.3087  -31.5613 N   0  0  0  0  0  0  0  0  0  0  0  0
  -19.5049   21.3459  -30.5849 C   0  0  0  0  0  0  0  0  0  0  0  0
  -20.9264   21.7711  -30.4622 C   0  0  0  0  0  0  0  0  0  0  0  0
  -21.5665   21.8547  -31.6731 O   0  0  0  0  0  0  0  0  0  0  0  0
  -21.6043   20.6180  -32.3278 C   0  0  0  0  0  0  0  0  0  0  0  0
  -20.2113   20.1452  -32.6411 C   0  0  0  0  0  0  0  0  0  0  0  0
  -17.2474   19.6132  -30.4053 C   0  0  0  0  0  0  0  0  0  0  0  0
  -16.1232   18.8322  -30.2558 C   0  0  0  0  0  0  0  0  0  0  0  0
  -15.2977   18.9341  -29.3162 O   0  0  0  0  0  0  0  0  0  0  0  0
  -15.9190   17.8798  -31.2244 N   0  0  0  0  0  0  0  0  0  0  0  0
  -14.8204   17.0895  -31.1206 C   0  0  0  0  0  0  0  0  0  0  0  0
  1  2  1  0
  2  3  1  0
  3  4  2  0
  4  5  1  0
  5  6  1  0
  5  7  1  0
  7  8  1  0
  8  9  2  0
  9 10  1  0
 10 11  2  0
 11 12  1  0
 12 13  2  0
  4 14  1  0
 14 15  2  0
 15 16  1  0
 16 17  1  0
 17 18  1  0
 18 19  1  0
 19 20  1  0
 20 21  1  0
 21 22  1  0
 16 23  2  0
 23 24  1  0
 24 25  2  0
 24 26  1  0
 26 27  1  0
 27  2  2  0
 13  8  1  0
 26 14  1  0
 22 17  1  0
M  END
$$$$
