
     RDKit          3D

 54 59  0  0  0  0  0  0  0  0999 V2000
   -9.6398   17.6021  -41.5570 N   0  0  0  0  0  0  0  0  0  0  0  0
  -10.6271   18.2134  -42.4352 C   0  0  0  0  0  0  0  0  0  0  0  0
  -11.7790   18.6265  -41.5769 C   0  0  0  0  0  0  0  0  0  0  0  0
  -12.9101   19.2765  -42.3707 C   0  0  0  0  0  0  0  0  0  0  0  0
  -13.9902   19.7659  -41.4405 C   0  0  0  0  0  0  0  0  0  0  0  0
  -15.1288   20.4601  -42.1532 C   0  0  2  0  0  0  0  0  0  0  0  0
  -16.3969   20.1740  -41.4634 N   0  0  0  0  0  0  0  0  0  0  0  0
  -17.4060   21.1267  -41.3722 C   0  0  0  0  0  0  0  0  0  0  0  0
  -17.1550   22.2313  -41.9998 O   0  0  0  0  0  0  0  0  0  0  0  0
  -18.6710   21.0264  -40.6809 C   0  0  1  0  0  0  0  0  0  0  0  0
  -19.9025   20.6955  -41.4383 C   0  0  0  0  0  0  0  0  0  0  0  0
  -20.4282   21.6477  -42.4045 C   0  0  0  0  0  0  0  0  0  0  0  0
  -21.0344   22.8444  -41.9927 C   0  0  0  0  0  0  0  0  0  0  0  0
  -21.5811   23.6914  -42.9131 C   0  0  0  0  0  0  0  0  0  0  0  0
  -22.4092   25.3189  -42.3230 Br  0  0  0  0  0  0  0  0  0  0  0  0
  -21.5815   23.4490  -44.2650 C   0  0  0  0  0  0  0  0  0  0  0  0
  -22.1378   24.3092  -45.2082 O   0  0  0  0  0  0  0  0  0  0  0  0
  -20.9759   22.2578  -44.6537 C   0  0  0  0  0  0  0  0  0  0  0  0
  -20.9736   21.8758  -46.5248 Br  0  0  0  0  0  0  0  0  0  0  0  0
  -20.4161   21.3854  -43.7483 C   0  0  0  0  0  0  0  0  0  0  0  0
  -18.5519   20.1036  -39.5201 N   0  0  0  0  0  0  0  0  0  0  0  0
  -18.9493   20.6025  -38.2546 C   0  0  0  0  0  0  0  0  0  0  0  0
  -18.6787   21.8063  -37.9695 O   0  0  0  0  0  0  0  0  0  0  0  0
  -19.6409   19.8324  -37.2745 N   0  0  0  0  0  0  0  0  0  0  0  0
  -19.7234   20.2925  -35.9146 C   0  0  0  0  0  0  0  0  0  0  0  0
  -19.8371   19.0513  -35.0293 C   0  0  0  0  0  0  0  0  0  0  0  0
  -21.2032   18.4764  -35.3105 C   0  0  0  0  0  0  0  0  0  0  0  0
  -21.4026   17.2333  -34.5088 N   0  0  0  0  0  0  0  0  0  0  0  0
  -21.1843   15.9746  -35.1547 C   0  0  0  0  0  0  0  0  0  0  0  0
  -21.1544   14.8472  -34.2201 C   0  0  0  0  0  0  0  0  0  0  0  0
  -20.7816   13.5946  -34.7197 C   0  0  0  0  0  0  0  0  0  0  0  0
  -20.7813   12.5151  -33.9163 C   0  0  0  0  0  0  0  0  0  0  0  0
  -21.1427   12.6035  -32.5882 C   0  0  0  0  0  0  0  0  0  0  0  0
  -21.5076   13.8249  -32.0913 C   0  0  0  0  0  0  0  0  0  0  0  0
  -21.5095   14.9365  -32.9113 C   0  0  0  0  0  0  0  0  0  0  0  0
  -21.8505   16.2068  -32.3170 N   0  0  0  0  0  0  0  0  0  0  0  0
  -21.7839   17.3286  -33.1606 C   0  0  0  0  0  0  0  0  0  0  0  0
  -22.0723   18.5038  -32.7335 O   0  0  0  0  0  0  0  0  0  0  0  0
  -21.4391   18.2391  -36.7673 C   0  0  0  0  0  0  0  0  0  0  0  0
  -20.2670   18.5830  -37.6260 C   0  0  0  0  0  0  0  0  0  0  0  0
  -15.2346   19.9064  -43.5140 C   0  0  0  0  0  0  0  0  0  0  0  0
  -16.1761   19.0655  -43.7809 O   0  0  0  0  0  0  0  0  0  0  0  0
  -14.3904   20.2066  -44.6011 N   0  0  0  0  0  0  0  0  0  0  0  0
  -14.5043   19.5517  -45.8631 C   0  0  0  0  0  0  0  0  0  0  0  0
  -14.5851   20.4954  -47.0251 C   0  0  0  0  0  0  0  0  0  0  0  0
  -14.3195   21.8777  -46.6784 N   0  0  0  0  0  0  0  0  0  0  0  0
  -14.6439   22.8562  -47.6575 C   0  0  0  0  0  0  0  0  0  0  0  0
  -15.7648   22.7458  -48.4489 C   0  0  0  0  0  0  0  0  0  0  0  0
  -16.0153   23.7443  -49.3673 C   0  0  0  0  0  0  0  0  0  0  0  0
  -15.1901   24.7788  -49.4756 N   0  0  0  0  0  0  0  0  0  0  0  0
  -14.0832   24.9378  -48.7297 C   0  0  0  0  0  0  0  0  0  0  0  0
  -13.8136   23.9528  -47.8064 C   0  0  0  0  0  0  0  0  0  0  0  0
  -13.7562   22.3281  -45.4274 C   0  0  0  0  0  0  0  0  0  0  0  0
  -13.3485   21.2323  -44.4967 C   0  0  0  0  0  0  0  0  0  0  0  0
  1  2  1  0
  2  3  1  0
  3  4  1  0
  4  5  1  0
  6  5  1  1
  6  7  1  0
  7  8  1  0
  8  9  2  0
  8 10  1  0
 10 11  1  6
 11 12  1  0
 12 13  2  0
 13 14  1  0
 14 15  1  0
 14 16  2  0
 16 17  1  0
 16 18  1  0
 18 19  1  0
 18 20  2  0
 10 21  1  0
 21 22  1  0
 22 23  2  0
 22 24  1  0
 24 25  1  0
 25 26  1  0
 26 27  1  0
 27 28  1  0
 28 29  1  0
 29 30  1  0
 30 31  2  0
 31 32  1  0
 32 33  2  0
 33 34  1  0
 34 35  2  0
 35 36  1  0
 36 37  1  0
 37 38  2  0
 27 39  1  0
 39 40  1  0
  6 41  1  0
 41 42  2  0
 41 43  1  0
 43 44  1  0
 44 45  1  0
 45 46  1  0
 46 47  1  0
 47 48  2  0
 48 49  1  0
 49 50  2  0
 50 51  1  0
 51 52  2  0
 46 53  1  0
 53 54  1  0
 20 12  1  0
 40 24  1  0
 54 43  1  0
 37 28  1  0
 52 47  1  0
 35 30  1  0
M  END
$$$$
