
     RDKit          3D

 27 30  0  0  0  0  0  0  0  0999 V2000
  -18.9337   34.8175  -21.2151 C   0  0  0  0  0  0  0  0  0  0  0  0
  -17.6928   35.3385  -20.8070 O   0  0  0  0  0  0  0  0  0  0  0  0
  -17.3076   36.6124  -21.2346 C   0  0  0  0  0  0  0  0  0  0  0  0
  -16.0340   37.0338  -21.0409 N   0  0  0  0  0  0  0  0  0  0  0  0
  -15.6098   38.2483  -21.4315 C   0  0  0  0  0  0  0  0  0  0  0  0
  -16.5153   39.0837  -22.0505 C   0  0  0  0  0  0  0  0  0  0  0  0
  -17.8372   38.6802  -22.2663 C   0  0  0  0  0  0  0  0  0  0  0  0
  -18.7584   39.5974  -22.9265 C   0  0  0  0  0  0  0  0  0  0  0  0
  -18.7702   40.9753  -22.7990 C   0  0  0  0  0  0  0  0  0  0  0  0
  -17.8734   41.7995  -21.9904 C   0  0  0  0  0  0  0  0  0  0  0  0
  -17.5548   41.4860  -20.6840 C   0  0  0  0  0  0  0  0  0  0  0  0
  -16.7056   42.2746  -19.9285 C   0  0  0  0  0  0  0  0  0  0  0  0
  -16.1358   43.4169  -20.4511 C   0  0  0  0  0  0  0  0  0  0  0  0
  -15.3027   44.1841  -19.6978 F   0  0  0  0  0  0  0  0  0  0  0  0
  -16.4506   43.7351  -21.7555 C   0  0  0  0  0  0  0  0  0  0  0  0
  -17.2985   42.9444  -22.5043 C   0  0  0  0  0  0  0  0  0  0  0  0
  -19.7833   41.4375  -23.5761 N   0  0  0  0  0  0  0  0  0  0  0  0
  -20.3972   40.4092  -24.1773 C   0  0  0  0  0  0  0  0  0  0  0  0
  -19.7731   39.2951  -23.7810 N   0  0  0  0  0  0  0  0  0  0  0  0
  -20.1056   37.9265  -24.1857 C   0  0  1  0  0  0  0  0  0  0  0  0
  -21.4516   37.5712  -23.6349 C   0  0  0  0  0  0  0  0  0  0  0  0
  -22.4738   37.8046  -24.7343 C   0  0  0  0  0  0  0  0  0  0  0  0
  -22.2826   36.6894  -25.7439 C   0  0  2  0  0  0  0  0  0  0  0  0
  -22.4734   35.4901  -25.0477 O   0  0  0  0  0  0  0  0  0  0  0  0
  -20.8839   36.7643  -26.2780 C   0  0  0  0  0  0  0  0  0  0  0  0
  -20.0783   37.8898  -25.6837 C   0  0  0  0  0  0  0  0  0  0  0  0
  -18.1657   37.4489  -21.8404 N   0  0  0  0  0  0  0  0  0  0  0  0
  1  2  1  0
  2  3  1  0
  3  4  2  0
  4  5  1  0
  5  6  2  0
  6  7  1  0
  7  8  1  0
  8  9  2  0
  9 10  1  0
 10 11  2  0
 11 12  1  0
 12 13  2  0
 13 14  1  0
 13 15  1  0
 15 16  2  0
  9 17  1  0
 17 18  2  0
 18 19  1  0
 20 19  1  6
 20 21  1  0
 21 22  1  0
 22 23  1  0
 23 24  1  1
 23 25  1  0
 25 26  1  0
  7 27  2  0
 27  3  1  0
 19  8  1  0
 26 20  1  0
 16 10  1  0
M  END
$$$$
