
     RDKit          3D

 25 28  0  0  0  0  0  0  0  0999 V2000
  -15.1291   17.8652  -35.7639 C   0  0  0  0  0  0  0  0  0  0  0  0
  -16.4450   17.3739  -35.3039 C   0  0  0  0  0  0  0  0  0  0  0  0
  -16.9839   16.3765  -35.8385 O   0  0  0  0  0  0  0  0  0  0  0  0
  -17.1546   17.9773  -34.2672 O   0  0  0  0  0  0  0  0  0  0  0  0
  -17.3567   17.4282  -33.0558 N   0  0  0  0  0  0  0  0  0  0  0  0
  -18.2795   16.7372  -32.6295 C   0  0  0  0  0  0  0  0  0  0  0  0
  -18.3183   15.7186  -31.6140 C   0  0  0  0  0  0  0  0  0  0  0  0
  -17.3738   15.2254  -30.8400 C   0  0  0  0  0  0  0  0  0  0  0  0
  -17.5254   14.8177  -29.4320 C   0  0  0  0  0  0  0  0  0  0  0  0
  -18.5771   14.8808  -28.7644 O   0  0  0  0  0  0  0  0  0  0  0  0
  -16.2480   14.3585  -29.0391 N   0  0  0  0  0  0  0  0  0  0  0  0
  -15.3419   14.4668  -30.1260 C   0  0  0  0  0  0  0  0  0  0  0  0
  -14.0058   14.1354  -30.1838 C   0  0  0  0  0  0  0  0  0  0  0  0
  -13.2737   14.3097  -31.3353 C   0  0  0  0  0  0  0  0  0  0  0  0
  -11.4293   13.8496  -31.4063 Br  0  0  0  0  0  0  0  0  0  0  0  0
  -13.9086   14.8278  -32.4428 C   0  0  0  0  0  0  0  0  0  0  0  0
  -15.2539   15.1672  -32.4028 C   0  0  0  0  0  0  0  0  0  0  0  0
  -15.9847   14.9953  -31.2598 C   0  0  0  0  0  0  0  0  0  0  0  0
  -19.6834   15.2332  -31.5248 N   0  0  0  0  0  0  0  0  0  0  0  0
  -20.4631   15.9489  -32.4749 C   0  0  0  0  0  0  0  0  0  0  0  0
  -21.8061   15.8432  -32.7619 C   0  0  0  0  0  0  0  0  0  0  0  0
  -22.3362   16.6547  -33.7354 C   0  0  0  0  0  0  0  0  0  0  0  0
  -21.5383   17.5414  -34.3955 C   0  0  0  0  0  0  0  0  0  0  0  0
  -20.1880   17.6577  -34.1169 C   0  0  0  0  0  0  0  0  0  0  0  0
  -19.6577   16.8491  -33.1463 C   0  0  0  0  0  0  0  0  0  0  0  0
  1  2  1  0
  2  3  2  0
  2  4  1  0
  4  5  1  0
  5  6  2  0
  6  7  1  0
  7  8  2  0
  8  9  1  0
  9 10  2  0
  9 11  1  0
 11 12  1  0
 12 13  2  0
 13 14  1  0
 14 15  1  0
 14 16  2  0
 16 17  1  0
 17 18  2  0
  7 19  1  0
 19 20  1  0
 20 21  2  0
 21 22  1  0
 22 23  2  0
 23 24  1  0
 24 25  2  0
 25  6  1  0
 18  8  1  0
 25 20  1  0
 18 12  1  0
M  END
$$$$
