
     RDKit          3D

 31 35  0  0  0  0  0  0  0  0999 V2000
  -12.3920   46.7412  -17.1818 C   0  0  0  0  0  0  0  0  0  0  0  0
  -12.6722   45.6100  -17.8741 O   0  0  0  0  0  0  0  0  0  0  0  0
  -13.8896   45.0697  -17.6414 C   0  0  0  0  0  0  0  0  0  0  0  0
  -14.1851   43.7807  -18.3252 C   0  0  0  0  0  0  0  0  0  0  0  0
  -15.1545   43.8945  -19.3109 O   0  0  0  0  0  0  0  0  0  0  0  0
  -15.9466   42.8285  -19.6913 C   0  0  0  0  0  0  0  0  0  0  0  0
  -16.2433   42.6614  -21.0143 C   0  0  0  0  0  0  0  0  0  0  0  0
  -17.0399   41.5862  -21.3818 C   0  0  0  0  0  0  0  0  0  0  0  0
  -17.5443   40.6786  -20.4613 C   0  0  0  0  0  0  0  0  0  0  0  0
  -17.2078   40.9016  -19.1302 C   0  0  0  0  0  0  0  0  0  0  0  0
  -16.4179   41.9610  -18.7318 C   0  0  0  0  0  0  0  0  0  0  0  0
  -17.7883   39.9275  -18.4284 N   0  0  0  0  0  0  0  0  0  0  0  0
  -18.4558   39.1359  -19.2919 C   0  0  0  0  0  0  0  0  0  0  0  0
  -18.3168   39.5841  -20.5529 N   0  0  0  0  0  0  0  0  0  0  0  0
  -18.8548   39.0459  -21.7573 C   0  0  0  0  0  0  0  0  0  0  0  0
  -19.1492   37.7050  -21.8932 C   0  0  0  0  0  0  0  0  0  0  0  0
  -19.6664   37.1562  -23.0354 C   0  0  0  0  0  0  0  0  0  0  0  0
  -19.9096   37.9946  -24.1207 C   0  0  0  0  0  0  0  0  0  0  0  0
  -20.4259   37.5080  -25.3023 C   0  0  0  0  0  0  0  0  0  0  0  0
  -20.6426   38.3801  -26.3421 C   0  0  0  0  0  0  0  0  0  0  0  0
  -20.3386   39.7423  -26.1894 C   0  0  0  0  0  0  0  0  0  0  0  0
  -19.8223   40.2600  -25.0236 C   0  0  0  0  0  0  0  0  0  0  0  0
  -19.5154   41.6062  -24.8105 N   0  0  0  0  0  0  0  0  0  0  0  0
  -18.5865   42.2997  -25.6788 C   0  0  0  0  0  0  0  0  0  0  0  0
  -19.3957   43.3104  -26.4627 C   0  0  0  0  0  0  0  0  0  0  0  0
  -20.0655   44.2488  -25.4743 C   0  0  0  0  0  0  0  0  0  0  0  0
  -19.5807   45.5712  -25.7382 N   0  0  0  0  0  0  0  0  0  0  0  0
  -19.7145   43.8755  -24.0619 C   0  0  0  0  0  0  0  0  0  0  0  0
  -20.0792   42.4221  -23.7555 C   0  0  0  0  0  0  0  0  0  0  0  0
  -19.6144   39.3532  -23.9910 C   0  0  0  0  0  0  0  0  0  0  0  0
  -19.1093   39.8084  -22.8354 N   0  0  0  0  0  0  0  0  0  0  0  0
  1  2  1  0
  2  3  1  0
  3  4  1  0
  4  5  1  0
  5  6  1  0
  6  7  2  0
  7  8  1  0
  8  9  2  0
  9 10  1  0
 10 11  2  0
 10 12  1  0
 12 13  2  0
 13 14  1  0
 14 15  1  0
 15 16  2  0
 16 17  1  0
 17 18  2  0
 18 19  1  0
 19 20  2  0
 20 21  1  0
 21 22  2  0
 22 23  1  0
 23 24  1  0
 24 25  1  0
 25 26  1  0
 26 27  1  0
 26 28  1  0
 28 29  1  0
 22 30  1  0
 30 31  2  0
 11  6  1  0
 31 15  1  0
 14  9  1  0
 30 18  1  0
 29 23  1  0
M  END
$$$$
