
     RDKit          3D

 24 25  0  0  0  0  0  0  0  0999 V2000
  -15.4801   -2.8575  -31.7864 Cl  0  0  0  0  0  0  0  0  0  0  0  0
  -15.7811   -2.8542  -33.1982 O   0  0  0  0  0  0  0  0  0  0  0  0
  -14.5780   -2.7900  -32.8515 C   0  0  0  0  0  0  0  0  0  0  0  0
  -14.1419   -3.2952  -31.6424 O   0  0  0  0  0  0  0  0  0  0  0  0
  -15.0180   -3.9027  -30.7388 C   0  0  0  0  0  0  0  0  0  0  0  0
  -16.1191   -2.9665  -30.2667 C   0  0  0  0  0  0  0  0  0  0  0  0
  -16.9377   -3.7455  -29.3352 N   0  0  0  0  0  0  0  0  0  0  0  0
  -17.6424   -4.7889  -30.0639 C   0  0  0  0  0  0  0  0  0  0  0  0
  -18.8613   -5.2026  -29.2636 C   0  0  0  0  0  0  0  0  0  0  0  0
  -19.7898   -4.1674  -29.1964 O   0  0  0  0  0  0  0  0  0  0  0  0
  -19.1863   -2.9193  -29.3178 C   0  0  0  0  0  0  0  0  0  0  0  0
  -17.8569   -2.8950  -28.5989 C   0  0  0  0  0  0  0  0  0  0  0  0
  -13.6024   -2.1440  -33.7872 C   0  0  0  0  0  0  0  0  0  0  0  0
  -13.0112   -0.9910  -33.0688 C   0  0  0  0  0  0  0  0  0  0  0  0
  -13.8695   -0.1349  -32.3602 C   0  0  0  0  0  0  0  0  0  0  0  0
  -13.3602    0.9462  -31.6777 C   0  0  0  0  0  0  0  0  0  0  0  0
  -12.0054    1.2224  -31.6665 C   0  0  0  0  0  0  0  0  0  0  0  0
  -11.1659    0.3793  -32.3636 C   0  0  0  0  0  0  0  0  0  0  0  0
  -11.6652   -0.7162  -33.0574 C   0  0  0  0  0  0  0  0  0  0  0  0
  -12.5608   -3.1408  -34.1744 C   0  0  0  0  0  0  0  0  0  0  0  0
  -13.1463   -4.2971  -34.9673 C   0  0  0  0  0  0  0  0  0  0  0  0
  -14.1056   -3.7944  -36.0285 C   0  0  0  0  0  0  0  0  0  0  0  0
  -13.9304   -2.2980  -36.2647 C   0  0  0  0  0  0  0  0  0  0  0  0
  -14.3577   -1.6051  -34.9827 C   0  0  0  0  0  0  0  0  0  0  0  0
  2  3  2  0
  3  4  1  0
  4  5  1  0
  5  6  1  0
  6  7  1  0
  7  8  1  0
  8  9  1  0
  9 10  1  0
 10 11  1  0
 11 12  1  0
  3 13  1  0
 13 14  1  0
 14 15  2  0
 15 16  1  0
 16 17  2  0
 17 18  1  0
 18 19  2  0
 13 20  1  0
 20 21  1  0
 21 22  1  0
 22 23  1  0
 23 24  1  0
 12  7  1  0
 24 13  1  0
 19 14  1  0
M  END
$$$$
