
     RDKit          3D

 28 31  0  0  0  0  0  0  0  0999 V2000
  -12.9493   -0.7894  -33.4100 C   0  0  0  0  0  0  0  0  0  0  0  0
  -13.5069    0.1646  -32.3898 C   0  0  0  0  0  0  0  0  0  0  0  0
  -12.9147   -0.1029  -31.0262 C   0  0  0  0  0  0  0  0  0  0  0  0
  -13.1504    1.6051  -32.7416 C   0  0  0  0  0  0  0  0  0  0  0  0
  -15.2816   -0.0384  -32.3695 S   0  0  0  0  0  6  0  0  0  0  0  0
  -15.9148    0.8012  -31.3128 O   0  0  0  0  0  0  0  0  0  0  0  0
  -15.8283    0.4074  -33.6962 O   0  0  0  0  0  0  0  0  0  0  0  0
  -15.6267   -1.7393  -32.1357 C   0  0  0  0  0  0  0  0  0  0  0  0
  -15.9826   -2.5301  -33.1910 C   0  0  0  0  0  0  0  0  0  0  0  0
  -16.2415   -3.8511  -32.9387 C   0  0  0  0  0  0  0  0  0  0  0  0
  -16.1406   -4.3507  -31.6504 C   0  0  0  0  0  0  0  0  0  0  0  0
  -16.3995   -5.6565  -31.4201 N   0  0  0  0  0  0  0  0  0  0  0  0
  -16.3161   -6.1825  -30.2012 C   0  0  0  0  0  0  0  0  0  0  0  0
  -15.9565   -5.4157  -29.0911 C   0  0  0  0  0  0  0  0  0  0  0  0
  -15.6851   -4.0956  -29.2656 C   0  0  0  0  0  0  0  0  0  0  0  0
  -15.3085   -3.2374  -28.1791 N   0  0  0  0  0  0  0  0  0  0  0  0
  -15.1395   -3.6402  -26.8573 C   0  0  0  0  0  0  0  0  0  0  0  0
  -14.5284   -4.7065  -26.3563 N   0  0  0  0  0  0  0  0  0  0  0  0
  -14.5916   -4.7242  -25.0238 N   0  0  0  0  0  0  0  0  0  0  0  0
  -15.2576   -3.6519  -24.5967 C   0  0  0  0  0  0  0  0  0  0  0  0
  -15.6206   -3.1595  -23.3698 C   0  0  0  0  0  0  0  0  0  0  0  0
  -16.3427   -1.9625  -23.2789 C   0  0  0  0  0  0  0  0  0  0  0  0
  -16.6984   -1.2636  -24.4123 C   0  0  0  0  0  0  0  0  0  0  0  0
  -17.3964   -0.1087  -24.3027 F   0  0  0  0  0  0  0  0  0  0  0  0
  -16.3227   -1.7782  -25.6300 C   0  0  0  0  0  0  0  0  0  0  0  0
  -15.6109   -2.9573  -25.7304 C   0  0  0  0  0  0  0  0  0  0  0  0
  -15.7808   -3.5701  -30.5574 C   0  0  0  0  0  0  0  0  0  0  0  0
  -15.5273   -2.2532  -30.8362 C   0  0  0  0  0  0  0  0  0  0  0  0
  1  2  1  0
  2  3  1  0
  2  4  1  0
  2  5  1  0
  5  6  2  0
  5  7  2  0
  5  8  1  0
  8  9  2  0
  9 10  1  0
 10 11  2  0
 11 12  1  0
 12 13  2  0
 13 14  1  0
 14 15  2  0
 15 16  1  0
 16 17  1  0
 17 18  2  0
 18 19  1  0
 19 20  1  0
 20 21  2  0
 21 22  1  0
 22 23  2  0
 23 24  1  0
 23 25  1  0
 25 26  2  0
 15 27  1  0
 27 28  2  0
 28  8  1  0
 27 11  1  0
 26 17  1  0
 26 20  1  0
M  END
$$$$
