
     RDKit          3D

 36 40  0  0  0  0  0  0  0  0999 V2000
  -17.0501   34.5779  -19.2447 O   0  0  0  0  0  0  0  0  0  0  0  0
  -16.8192   34.8690  -20.4364 C   0  0  0  0  0  0  0  0  0  0  0  0
  -16.1824   33.9548  -21.2487 O   0  0  0  0  0  0  0  0  0  0  0  0
  -17.2237   36.1619  -20.9464 C   0  0  0  0  0  0  0  0  0  0  0  0
  -16.8616   36.5198  -22.2364 C   0  0  0  0  0  0  0  0  0  0  0  0
  -17.2599   37.7552  -22.6943 C   0  0  0  0  0  0  0  0  0  0  0  0
  -17.9995   38.6540  -21.9378 C   0  0  0  0  0  0  0  0  0  0  0  0
  -18.4056   39.9112  -22.4935 N   0  0  0  0  0  0  0  0  0  0  0  0
  -17.8756   41.1529  -21.9395 C   0  0  0  0  0  0  0  0  0  0  0  0
  -17.0714   41.2414  -20.9962 O   0  0  0  0  0  0  0  0  0  0  0  0
  -18.4492   42.2504  -22.6797 C   0  0  0  0  0  0  0  0  0  0  0  0
  -18.2610   43.5453  -22.5230 C   0  0  0  0  0  0  0  0  0  0  0  0
  -17.1533   44.0337  -21.7243 C   0  0  0  0  0  0  0  0  0  0  0  0
  -17.0207   45.4008  -21.5042 C   0  0  0  0  0  0  0  0  0  0  0  0
  -15.8995   45.5476  -20.7264 C   0  0  0  0  0  0  0  0  0  0  0  0
  -15.4127   44.2866  -20.5144 C   0  0  0  0  0  0  0  0  0  0  0  0
  -14.2038   44.0119  -19.7168 C   0  0  0  0  0  0  0  0  0  0  0  0
  -13.4077   45.0428  -19.2960 C   0  0  0  0  0  0  0  0  0  0  0  0
  -12.2681   44.7880  -18.5446 C   0  0  0  0  0  0  0  0  0  0  0  0
  -11.9197   43.5011  -18.2109 C   0  0  0  0  0  0  0  0  0  0  0  0
  -10.7469   43.2152  -17.4355 N   0  0  0  0  0  4  0  0  0  0  0  0
   -9.9473   44.1189  -17.1468 O   0  0  0  0  0  0  0  0  0  0  0  0
  -10.5248   41.9441  -17.0231 O   0  0  0  0  0  1  0  0  0  0  0  0
  -12.7237   42.4662  -18.6364 C   0  0  0  0  0  0  0  0  0  0  0  0
  -13.8578   42.7218  -19.3843 C   0  0  0  0  0  0  0  0  0  0  0  0
  -16.1825   43.4421  -21.1191 O   0  0  0  0  0  0  0  0  0  0  0  0
  -19.3197   41.6010  -23.6703 C   0  0  0  0  0  0  0  0  0  0  0  0
  -19.2714   40.2623  -23.5361 C   0  0  0  0  0  0  0  0  0  0  0  0
  -20.0357   39.3347  -24.3796 C   0  0  0  0  0  0  0  0  0  0  0  0
  -20.8501   38.3639  -23.8824 C   0  0  0  0  0  0  0  0  0  0  0  0
  -21.5708   37.4943  -24.7155 C   0  0  0  0  0  0  0  0  0  0  0  0
  -21.4672   37.6072  -26.0761 C   0  0  0  0  0  0  0  0  0  0  0  0
  -20.6537   38.5769  -26.5751 C   0  0  0  0  0  0  0  0  0  0  0  0
  -19.9432   39.4340  -25.7593 C   0  0  0  0  0  0  0  0  0  0  0  0
  -18.3521   38.2815  -20.6541 C   0  0  0  0  0  0  0  0  0  0  0  0
  -17.9673   37.0545  -20.1729 C   0  0  0  0  0  0  0  0  0  0  0  0
  1  2  2  0
  2  3  1  0
  2  4  1  0
  4  5  2  0
  5  6  1  0
  6  7  2  0
  7  8  1  0
  8  9  1  0
  9 10  2  0
  9 11  1  0
 11 12  2  0
 12 13  1  0
 13 14  2  0
 14 15  1  0
 15 16  2  0
 16 17  1  0
 17 18  2  0
 18 19  1  0
 19 20  2  0
 20 21  1  0
 21 22  2  0
 21 23  1  0
 20 24  1  0
 24 25  2  0
 16 26  1  0
 11 27  1  0
 27 28  2  0
 28 29  1  0
 29 30  2  0
 30 31  1  0
 31 32  2  0
 32 33  1  0
 33 34  2  0
  7 35  1  0
 35 36  2  0
 36  4  1  0
 28  8  1  0
 34 29  1  0
 26 13  1  0
 25 17  1  0
M  CHG  2  21   1  23  -1
M  END
$$$$
