
     RDKit          3D

  9  8  0  0  0  0  0  0  0  0999 V2000
  -16.9323   39.5518  -21.6617 C   0  0  0  0  0  0  0  0  0  0  0  0
  -17.9024   38.5067  -21.7569 O   0  0  0  0  0  0  0  0  0  0  0  0
  -17.4719   37.2030  -21.9168 C   0  0  0  0  0  0  0  0  0  0  0  0
  -16.2204   36.9961  -21.9831 O   0  0  0  0  0  0  0  0  0  0  0  0
  -18.4094   36.1048  -22.0065 C   0  0  0  0  0  0  0  0  0  0  0  0
  -17.9781   34.8696  -22.0490 C   0  0  0  0  0  0  0  0  0  0  0  0
  -18.9090   33.7677  -22.0982 C   0  0  0  0  0  0  0  0  0  0  0  0
  -18.5263   32.5872  -22.2183 O   0  0  0  0  0  0  0  0  0  0  0  0
  -20.2585   34.0303  -22.0096 O   0  0  0  0  0  0  0  0  0  0  0  0
  1  2  1  0
  2  3  1  0
  3  4  2  0
  3  5  1  0
  5  6  2  3
  6  7  1  0
  7  8  2  0
  7  9  1  0
M  END
$$$$
