
     RDKit          3D

 33 37  0  0  0  0  0  0  0  0999 V2000
  -19.2266   -1.4166  -39.6582 C   0  0  0  0  0  0  0  0  0  0  0  0
  -20.4979   -1.6035  -38.8090 C   0  0  0  0  0  0  0  0  0  0  0  0
  -21.2509   -2.7378  -39.5244 C   0  0  0  0  0  0  0  0  0  0  0  0
  -21.2934   -0.3709  -38.9580 C   0  0  0  0  0  0  0  0  0  0  0  0
  -22.2688   -0.2298  -37.8640 C   0  0  0  0  0  0  0  0  0  0  0  0
  -21.6359   -0.2364  -36.4945 C   0  0  2  0  0  0  0  0  0  0  0  0
  -22.8385   -0.3919  -35.5884 C   0  0  0  0  0  0  0  0  0  0  0  0
  -23.8829   -0.8414  -36.1074 O   0  0  0  0  0  0  0  0  0  0  0  0
  -22.7685   -0.0475  -34.2481 O   0  0  0  0  0  0  0  0  0  0  0  0
  -21.0895    1.0979  -36.1971 C   0  0  0  0  0  0  0  0  0  0  0  0
  -20.1158    1.2615  -35.0591 C   0  0  0  0  0  0  0  0  0  0  0  0
  -19.0223    0.1475  -35.1229 C   0  0  2  0  0  0  0  0  0  0  0  0
  -18.4182    0.5034  -36.4525 C   0  0  0  0  0  0  0  0  0  0  0  0
  -19.8853   -1.0443  -35.1253 C   0  0  0  0  0  0  0  0  0  0  0  0
  -19.9503   -1.8014  -34.0681 C   0  0  0  0  0  0  0  0  0  0  0  0
  -19.1866   -1.5309  -32.8193 C   0  0  0  0  0  0  0  0  0  0  0  0
  -17.8606   -1.0773  -33.3116 C   0  0  2  0  0  0  0  0  0  0  0  0
  -16.7359   -1.1884  -32.3363 C   0  0  1  0  0  0  0  0  0  0  0  0
  -16.8389   -0.4254  -31.0695 C   0  0  0  0  0  0  0  0  0  0  0  0
  -16.7265   -2.6685  -31.9109 C   0  0  0  0  0  0  0  0  0  0  0  0
  -15.4669   -3.0868  -31.2432 C   0  0  0  0  0  0  0  0  0  0  0  0
  -14.1931   -2.6572  -31.8380 C   0  0  2  0  0  0  0  0  0  0  0  0
  -13.2094   -2.6414  -30.8290 O   0  0  0  0  0  0  0  0  0  0  0  0
  -14.2009   -1.2846  -32.4510 C   0  0  0  0  0  0  0  0  0  0  0  0
  -13.6835   -0.2744  -31.4837 C   0  0  0  0  0  0  0  0  0  0  0  0
  -13.1643   -1.3630  -33.5906 C   0  0  0  0  0  0  0  0  0  0  0  0
  -15.4885   -0.9546  -33.1125 C   0  0  2  0  0  0  0  0  0  0  0  0
  -15.5323    0.4337  -33.6467 C   0  0  0  0  0  0  0  0  0  0  0  0
  -16.6665    0.4697  -34.6635 C   0  0  0  0  0  0  0  0  0  0  0  0
  -18.0447    0.2428  -34.0168 C   0  0  1  0  0  0  0  0  0  0  0  0
  -18.2982    1.3715  -33.0518 C   0  0  0  0  0  0  0  0  0  0  0  0
  -20.7446   -1.4101  -36.2909 C   0  0  2  0  0  0  0  0  0  0  0  0
  -20.0479   -1.9878  -37.4489 C   0  0  0  0  0  0  0  0  0  0  0  0
  1  2  1  0
  2  3  1  0
  2  4  1  0
  4  5  1  0
  5  6  1  0
  6  7  1  1
  7  8  2  0
  7  9  1  0
  6 10  1  0
 10 11  1  0
 11 12  1  0
 12 13  1  6
 12 14  1  0
 14 15  2  0
 15 16  1  0
 17 16  1  1
 17 18  1  0
 18 19  1  1
 18 20  1  0
 20 21  1  0
 21 22  1  0
 22 23  1  1
 22 24  1  0
 24 25  1  0
 24 26  1  0
 24 27  1  0
 27 28  1  1
 28 29  1  0
 29 30  1  0
 30 31  1  1
 14 32  1  0
 32 33  1  6
 33  2  1  0
 32  6  1  0
 30 12  1  0
 30 17  1  0
 27 18  1  0
M  END
$$$$
