
     RDKit          3D

 15 15  0  0  0  0  0  0  0  0999 V2000
  -19.3662   41.6571  -23.5329 C   0  0  0  0  0  0  0  0  0  0  0  0
  -18.2874   41.5547  -22.5097 C   0  0  0  0  0  0  0  0  0  0  0  0
  -18.7637   41.6359  -21.1532 N   0  0  0  0  0  0  0  0  0  0  0  0
  -17.7910   40.9528  -20.3659 C   0  0  0  0  0  0  0  0  0  0  0  0
  -17.7247   40.8732  -19.0944 O   0  0  0  0  0  0  0  0  0  0  0  0
  -16.8476   40.3349  -21.2469 N   0  0  0  0  0  0  0  0  0  0  0  0
  -17.5942   40.2117  -22.5100 C   0  0  0  0  0  0  0  0  0  0  0  0
  -18.5813   39.0861  -22.2996 C   0  0  0  0  0  0  0  0  0  0  0  0
  -17.8860   37.7965  -21.9352 C   0  0  0  0  0  0  0  0  0  0  0  0
  -18.5286   36.5741  -22.5065 C   0  0  0  0  0  0  0  0  0  0  0  0
  -17.6915   35.3829  -22.0871 C   0  0  0  0  0  0  0  0  0  0  0  0
  -18.1785   34.1011  -22.7127 C   0  0  0  0  0  0  0  0  0  0  0  0
  -19.5337   33.7643  -22.2053 C   0  0  0  0  0  0  0  0  0  0  0  0
  -20.4303   33.3930  -23.0358 O   0  0  0  0  0  0  0  0  0  0  0  0
  -19.8700   33.8332  -20.8809 O   0  0  0  0  0  0  0  0  0  0  0  0
  1  2  1  0
  2  3  1  0
  3  4  1  0
  4  5  2  0
  4  6  1  0
  6  7  1  0
  7  8  1  0
  8  9  1  0
  9 10  1  0
 10 11  1  0
 11 12  1  0
 12 13  1  0
 13 14  2  0
 13 15  1  0
  7  2  1  0
M  END
$$$$
