
     RDKit          3D

 33 37  0  0  0  0  0  0  0  0999 V2000
  -26.1485   15.5655  -25.1754 O   0  0  0  0  0  0  0  0  0  0  0  0
  -27.0767   16.3397  -25.5590 C   0  0  0  0  0  0  0  0  0  0  0  0
  -28.4198   15.9147  -25.6574 N   0  0  0  0  0  0  0  0  0  0  0  0
  -29.3255   16.6412  -26.5074 C   0  0  2  0  0  0  0  0  0  0  0  0
  -30.7451   16.3706  -26.1697 C   0  0  0  0  0  0  0  0  0  0  0  0
  -31.3194   15.2041  -26.5997 C   0  0  0  0  0  0  0  0  0  0  0  0
  -32.6522   14.8837  -26.3163 C   0  0  0  0  0  0  0  0  0  0  0  0
  -33.4423   15.7340  -25.5899 C   0  0  0  0  0  0  0  0  0  0  0  0
  -34.7958   15.4996  -25.2537 N   0  0  0  0  0  0  0  0  0  0  0  0
  -35.5790   16.4662  -24.5562 C   0  0  0  0  0  0  0  0  0  0  0  0
  -36.2960   15.8152  -23.3686 C   0  0  0  0  0  0  0  0  0  0  0  0
  -36.4137   14.4546  -23.4838 O   0  0  0  0  0  0  0  0  0  0  0  0
  -36.7317   14.1567  -24.8038 C   0  0  0  0  0  0  0  0  0  0  0  0
  -35.4562   14.2406  -25.6105 C   0  0  0  0  0  0  0  0  0  0  0  0
  -32.8477   16.9304  -25.1507 C   0  0  0  0  0  0  0  0  0  0  0  0
  -31.5350   17.2347  -25.4357 C   0  0  0  0  0  0  0  0  0  0  0  0
  -29.0594   16.1810  -27.9436 C   0  0  0  0  0  0  0  0  0  0  0  0
  -29.7583   16.6060  -29.0026 C   0  0  0  0  0  0  0  0  0  0  0  0
  -29.4916   16.1770  -30.2366 C   0  0  0  0  0  0  0  0  0  0  0  0
  -28.1031   15.0300  -29.9858 S   0  0  0  0  0  0  0  0  0  0  0  0
  -28.0475   15.2771  -28.1788 C   0  0  0  0  0  0  0  0  0  0  0  0
  -29.1017   18.1222  -26.4253 C   0  0  0  0  0  0  0  0  0  0  0  0
  -27.6836   18.5235  -26.3060 C   0  0  0  0  0  0  0  0  0  0  0  0
  -27.2918   19.8493  -26.6321 O   0  0  0  0  0  0  0  0  0  0  0  0
  -26.7386   17.7046  -25.9058 C   0  0  0  0  0  0  0  0  0  0  0  0
  -25.0378   18.2873  -25.7941 S   0  0  0  0  0  0  0  0  0  0  0  0
  -24.3424   17.9143  -24.2090 C   0  0  0  0  0  0  0  0  0  0  0  0
  -25.1232   17.3828  -23.2051 C   0  0  0  0  0  0  0  0  0  0  0  0
  -24.5691   17.0942  -21.9700 C   0  0  0  0  0  0  0  0  0  0  0  0
  -23.2311   17.3411  -21.7486 C   0  0  0  0  0  0  0  0  0  0  0  0
  -22.4299   17.8793  -22.7576 C   0  0  0  0  0  0  0  0  0  0  0  0
  -23.0005   18.1610  -23.9840 C   0  0  0  0  0  0  0  0  0  0  0  0
  -22.0027   18.8400  -25.2592 Cl  0  0  0  0  0  0  0  0  0  0  0  0
  1  2  2  0
  2  3  1  0
  3  4  1  0
  4  5  1  1
  5  6  2  0
  6  7  1  0
  7  8  2  0
  8  9  1  0
  9 10  1  0
 10 11  1  0
 11 12  1  0
 12 13  1  0
 13 14  1  0
  8 15  1  0
 15 16  2  0
  4 17  1  0
 17 18  1  0
 18 19  2  0
 19 20  1  0
 20 21  1  0
  4 22  1  0
 22 23  1  0
 23 24  1  0
 23 25  2  0
 25 26  1  0
 26 27  1  0
 27 28  2  0
 28 29  1  0
 29 30  2  0
 30 31  1  0
 31 32  2  0
 32 33  1  0
 25  2  1  0
 32 27  1  0
 16  5  1  0
 21 17  2  0
 14  9  1  0
M  END
$$$$
