
     RDKit          3D

 30 33  0  0  0  0  0  0  0  0999 V2000
  -26.9475   20.7943  -27.9177 C   0  0  0  0  0  0  0  0  0  0  0  0
  -28.3823   20.8861  -27.8654 N   0  0  0  0  0  0  0  0  0  0  0  0
  -29.2313   19.8727  -27.3506 C   0  0  0  0  0  0  0  0  0  0  0  0
  -28.7426   18.6986  -26.8897 N   0  0  0  0  0  0  0  0  0  0  0  0
  -29.5033   17.7343  -26.3934 C   0  0  0  0  0  0  0  0  0  0  0  0
  -29.0289   16.4884  -25.9181 N   0  0  0  0  0  0  0  0  0  0  0  0
  -27.6937   16.4239  -25.3840 C   0  0  0  0  0  0  0  0  0  0  0  0
  -26.7601   17.4557  -25.4371 C   0  0  0  0  0  0  0  0  0  0  0  0
  -25.6725   16.9787  -24.8562 N   0  0  0  0  0  0  0  0  0  0  0  0
  -25.8721   15.7208  -24.4475 N   0  0  0  0  0  0  0  0  0  0  0  0
  -24.8594   14.9491  -23.7923 C   0  0  1  0  0  0  0  0  0  0  0  0
  -23.6539   14.6722  -24.6912 C   0  0  0  0  0  0  0  0  0  0  0  0
  -22.7590   13.7327  -23.8848 C   0  0  0  0  0  0  0  0  0  0  0  0
  -22.1845   14.4339  -22.7701 N   0  0  0  0  0  0  0  0  0  0  0  0
  -20.8019   14.7642  -23.1464 C   0  0  0  0  0  0  0  0  0  0  0  0
  -19.8543   13.5984  -23.1609 C   0  0  0  0  0  0  0  0  0  0  0  0
  -18.8679   14.4659  -22.6357 O   0  0  0  0  0  0  0  0  0  0  0  0
  -19.9062   15.1440  -21.9898 C   0  0  0  0  0  0  0  0  0  0  0  0
  -22.8229   15.6888  -22.4907 C   0  0  0  0  0  0  0  0  0  0  0  0
  -24.3047   15.6839  -22.5825 C   0  0  2  0  0  0  0  0  0  0  0  0
  -24.9298   15.3000  -21.4046 F   0  0  0  0  0  0  0  0  0  0  0  0
  -27.1071   15.3466  -24.7555 C   0  0  0  0  0  0  0  0  0  0  0  0
  -27.8913   13.7896  -24.4405 Cl  0  0  0  0  0  0  0  0  0  0  0  0
  -30.8527   17.9305  -26.3415 N   0  0  0  0  0  0  0  0  0  0  0  0
  -31.4163   19.0596  -26.7761 C   0  0  0  0  0  0  0  0  0  0  0  0
  -30.5981   20.0616  -27.2947 C   0  0  0  0  0  0  0  0  0  0  0  0
  -31.1915   21.3317  -27.7927 C   0  0  0  0  0  0  0  0  0  0  0  0
  -32.2949   21.6070  -27.0059 F   0  0  0  0  0  0  0  0  0  0  0  0
  -30.2510   22.3564  -27.6192 F   0  0  0  0  0  0  0  0  0  0  0  0
  -31.4869   21.2160  -29.1184 F   0  0  0  0  0  0  0  0  0  0  0  0
  1  2  1  0
  2  3  1  0
  3  4  2  0
  4  5  1  0
  5  6  1  0
  6  7  1  0
  7  8  1  0
  8  9  2  0
  9 10  1  0
 11 10  1  6
 11 12  1  0
 12 13  1  0
 13 14  1  0
 14 15  1  0
 15 16  1  0
 16 17  1  0
 17 18  1  0
 14 19  1  0
 19 20  1  0
 20 21  1  1
 10 22  1  0
 22 23  1  0
  5 24  2  0
 24 25  1  0
 25 26  2  0
 26 27  1  0
 27 28  1  0
 27 29  1  0
 27 30  1  0
 26  3  1  0
 22  7  2  0
 20 11  1  0
 18 15  1  0
M  END
$$$$
