
     RDKit          3D

 31 34  0  0  0  0  0  0  0  0999 V2000
  -17.8448   18.0229  -32.2216 C   0  0  0  0  0  0  0  0  0  0  0  0
  -18.4844   17.9212  -33.5535 C   0  0  0  0  0  0  0  0  0  0  0  0
  -20.1148   17.2897  -33.8961 S   0  0  0  0  0  0  0  0  0  0  0  0
  -20.0011   17.5556  -35.6741 C   0  0  0  0  0  0  0  0  0  0  0  0
  -18.7527   18.0860  -35.8772 C   0  0  0  0  0  0  0  0  0  0  0  0
  -17.9738   18.2843  -34.8032 C   0  0  0  0  0  0  0  0  0  0  0  0
  -16.6309   19.0306  -34.8423 C   0  0  0  0  0  0  0  0  0  0  0  0
  -18.2813   18.3422  -37.2770 C   0  0  0  0  0  0  0  0  0  0  0  0
  -16.9382   18.0298  -37.6432 C   0  0  0  0  0  0  0  0  0  0  0  0
  -16.2046   18.6859  -38.5464 C   0  0  0  0  0  0  0  0  0  0  0  0
  -14.9386   18.3012  -38.9149 C   0  0  0  0  0  0  0  0  0  0  0  0
  -14.4096   17.1687  -38.3025 C   0  0  0  0  0  0  0  0  0  0  0  0
  -12.7928   16.6444  -38.7451 Cl  0  0  0  0  0  0  0  0  0  0  0  0
  -15.1395   16.4723  -37.3665 C   0  0  0  0  0  0  0  0  0  0  0  0
  -16.3950   16.9019  -37.0409 C   0  0  0  0  0  0  0  0  0  0  0  0
  -19.0669   18.8421  -38.2227 N   0  0  0  0  0  0  0  0  0  0  0  0
  -20.4853   19.2277  -38.1450 C   0  0  1  0  0  0  0  0  0  0  0  0
  -20.8765   19.8168  -39.4433 C   0  0  0  0  0  0  0  0  0  0  0  0
  -20.2504   21.0977  -39.7624 C   0  0  0  0  0  0  0  0  0  0  0  0
  -19.7155   21.7963  -38.8740 O   0  0  0  0  0  0  0  0  0  0  0  0
  -20.2145   21.6013  -41.0607 O   0  0  0  0  0  0  0  0  0  0  0  0
  -20.2233   23.0120  -41.3122 C   0  0  0  0  0  0  0  0  0  0  0  0
  -20.0412   23.7872  -40.0088 C   0  0  0  0  0  0  0  0  0  0  0  0
  -21.5832   23.3678  -41.8591 C   0  0  0  0  0  0  0  0  0  0  0  0
  -19.0910   23.4033  -42.2336 C   0  0  0  0  0  0  0  0  0  0  0  0
  -21.3454   18.0925  -37.7215 C   0  0  0  0  0  0  0  0  0  0  0  0
  -22.4395   17.5638  -38.2133 N   0  0  0  0  0  0  0  0  0  0  0  0
  -22.8686   16.5495  -37.4323 N   0  0  0  0  0  0  0  0  0  0  0  0
  -22.0204   16.4248  -36.4069 C   0  0  0  0  0  0  0  0  0  0  0  0
  -22.0485   15.4685  -35.2571 C   0  0  0  0  0  0  0  0  0  0  0  0
  -21.0994   17.3550  -36.5804 N   0  0  0  0  0  0  0  0  0  0  0  0
  1  2  1  0
  2  3  1  0
  3  4  1  0
  4  5  2  0
  5  6  1  0
  6  7  1  0
  5  8  1  0
  8  9  1  0
  9 10  2  0
 10 11  1  0
 11 12  2  0
 12 13  1  0
 12 14  1  0
 14 15  2  0
  8 16  2  0
 16 17  1  0
 17 18  1  6
 18 19  1  0
 19 20  2  0
 19 21  1  0
 21 22  1  0
 22 23  1  0
 22 24  1  0
 22 25  1  0
 17 26  1  0
 26 27  2  0
 27 28  1  0
 28 29  2  0
 29 30  1  0
 29 31  1  0
  6  2  2  0
 15  9  1  0
 31 26  1  0
 31  4  1  0
M  END
$$$$
