
     RDKit          3D

 25 26  0  0  0  0  0  0  0  0999 V2000
  -22.7212   20.9445  -31.4450 C   0  0  0  0  0  0  0  0  0  0  0  0
  -23.5283   21.6953  -30.4366 C   0  0  0  0  0  0  0  0  0  0  0  0
  -24.8912   21.1810  -30.3239 N   0  0  0  0  0  0  0  0  0  0  0  0
  -25.8826   21.7984  -31.2039 C   0  0  0  0  0  0  0  0  0  0  0  0
  -26.5398   22.9832  -30.4972 C   0  0  0  0  0  0  0  0  0  0  0  0
  -25.2426   20.1566  -29.4291 C   0  0  0  0  0  0  0  0  0  0  0  0
  -26.4391   19.7933  -29.3037 O   0  0  0  0  0  0  0  0  0  0  0  0
  -24.2099   19.4982  -28.6285 C   0  0  0  0  0  0  0  0  0  0  0  0
  -24.8103   18.4147  -27.7489 C   0  0  0  0  0  0  0  0  0  0  0  0
  -25.5279   18.7630  -26.5853 C   0  0  0  0  0  0  0  0  0  0  0  0
  -26.0216   17.1795  -25.9006 S   0  0  0  0  0  0  0  0  0  0  0  0
  -25.1655   16.2290  -27.3227 C   0  0  0  0  0  0  0  0  0  0  0  0
  -25.2815   14.8087  -27.2283 N   0  0  0  0  0  0  0  0  0  0  0  0
  -25.1523   13.9398  -25.7580 S   0  0  0  0  0  6  0  0  0  0  0  0
  -24.9128   12.4901  -25.9789 O   0  0  0  0  0  0  0  0  0  0  0  0
  -26.5047   14.0396  -25.0639 O   0  0  0  0  0  0  0  0  0  0  0  0
  -23.9167   14.5785  -24.7142 C   0  0  0  0  0  0  0  0  0  0  0  0
  -22.6425   14.7579  -25.2086 C   0  0  0  0  0  0  0  0  0  0  0  0
  -21.6374   15.2678  -24.3914 C   0  0  0  0  0  0  0  0  0  0  0  0
  -21.8707   15.6102  -23.0710 C   0  0  0  0  0  0  0  0  0  0  0  0
  -23.1435   15.4282  -22.5864 C   0  0  0  0  0  0  0  0  0  0  0  0
  -23.4683   15.8525  -20.9202 Cl  0  0  0  0  0  0  0  0  0  0  0  0
  -24.1318   14.9215  -23.4075 C   0  0  0  0  0  0  0  0  0  0  0  0
  -25.4943   14.7376  -22.8529 C   0  0  0  0  0  0  0  0  0  0  0  0
  -24.7502   17.1193  -27.9270 N   0  0  0  0  0  0  0  0  0  0  0  0
  1  2  1  0
  2  3  1  0
  3  4  1  0
  4  5  1  0
  3  6  1  0
  6  7  2  0
  6  8  1  0
  8  9  1  0
  9 10  2  0
 10 11  1  0
 11 12  1  0
 12 13  1  0
 13 14  1  0
 14 15  2  0
 14 16  2  0
 14 17  1  0
 17 18  2  0
 18 19  1  0
 19 20  2  0
 20 21  1  0
 21 22  1  0
 21 23  2  0
 23 24  1  0
 12 25  2  0
 25  9  1  0
 23 17  1  0
M  END
$$$$
