
     RDKit          3D

 35 39  0  0  0  0  0  0  0  0999 V2000
  -17.9935   13.5004  -33.3577 C   0  0  0  0  0  0  0  0  0  0  0  0
  -17.8814   14.7586  -32.5242 C   0  0  0  0  0  0  0  0  0  0  0  0
  -16.5127   14.8584  -32.0675 N   0  0  0  0  0  0  0  0  0  0  0  0
  -16.0531   14.2507  -30.9668 C   0  0  0  0  0  0  0  0  0  0  0  0
  -16.8690   13.5514  -30.2889 O   0  0  0  0  0  0  0  0  0  0  0  0
  -14.7499   14.3467  -30.5386 C   0  0  0  0  0  0  0  0  0  0  0  0
  -14.2609   13.6828  -29.3376 C   0  0  0  0  0  0  0  0  0  0  0  0
  -13.3715   12.6215  -29.4558 C   0  0  0  0  0  0  0  0  0  0  0  0
  -12.8861   11.9654  -28.3545 C   0  0  0  0  0  0  0  0  0  0  0  0
  -13.2735   12.3486  -27.1013 C   0  0  0  0  0  0  0  0  0  0  0  0
  -12.6258   11.4794  -25.7152 Cl  0  0  0  0  0  0  0  0  0  0  0  0
  -14.1558   13.3984  -26.9424 C   0  0  0  0  0  0  0  0  0  0  0  0
  -14.6299   14.0424  -28.0671 C   0  0  0  0  0  0  0  0  0  0  0  0
  -15.7413   15.3636  -27.8371 Cl  0  0  0  0  0  0  0  0  0  0  0  0
  -13.8877   15.1128  -31.2948 C   0  0  0  0  0  0  0  0  0  0  0  0
  -14.3256   15.7504  -32.4301 C   0  0  0  0  0  0  0  0  0  0  0  0
  -13.4786   16.5230  -33.2052 C   0  0  0  0  0  0  0  0  0  0  0  0
  -13.9283   17.1424  -34.3203 N   0  0  0  0  0  0  0  0  0  0  0  0
  -15.2196   16.9986  -34.6718 C   0  0  0  0  0  0  0  0  0  0  0  0
  -15.7594   17.6212  -35.8481 N   0  0  0  0  0  0  0  0  0  0  0  0
  -17.1563   17.7031  -36.0725 C   0  0  0  0  0  0  0  0  0  0  0  0
  -17.7006   18.3242  -37.1799 C   0  0  0  0  0  0  0  0  0  0  0  0
  -19.0690   18.3950  -37.3891 C   0  0  0  0  0  0  0  0  0  0  0  0
  -19.9430   17.8367  -36.4799 C   0  0  0  0  0  0  0  0  0  0  0  0
  -21.3629   17.8638  -36.6167 N   0  0  0  0  0  0  0  0  0  0  0  0
  -22.0627   16.6446  -36.9250 C   0  0  0  0  0  0  0  0  0  0  0  0
  -23.3659   16.9126  -37.6413 C   0  0  0  0  0  0  0  0  0  0  0  0
  -23.2175   18.1716  -38.3987 N   0  0  0  0  0  0  0  0  0  0  0  0
  -23.2603   19.2133  -37.3919 C   0  0  0  0  0  0  0  0  0  0  0  0
  -22.0993   19.0843  -36.4460 C   0  0  0  0  0  0  0  0  0  0  0  0
  -19.3922   17.2178  -35.3753 C   0  0  0  0  0  0  0  0  0  0  0  0
  -20.2272   16.6652  -34.4737 F   0  0  0  0  0  0  0  0  0  0  0  0
  -18.0313   17.1465  -35.1659 C   0  0  0  0  0  0  0  0  0  0  0  0
  -16.0479   16.2450  -33.9171 N   0  0  0  0  0  0  0  0  0  0  0  0
  -15.6616   15.6049  -32.7991 C   0  0  0  0  0  0  0  0  0  0  0  0
  1  2  1  0
  2  3  1  0
  3  4  1  0
  4  5  2  0
  4  6  1  0
  6  7  1  0
  7  8  2  0
  8  9  1  0
  9 10  2  0
 10 11  1  0
 10 12  1  0
 12 13  2  0
 13 14  1  0
  6 15  2  0
 15 16  1  0
 16 17  2  0
 17 18  1  0
 18 19  2  0
 19 20  1  0
 20 21  1  0
 21 22  2  0
 22 23  1  0
 23 24  2  0
 24 25  1  0
 25 26  1  0
 26 27  1  0
 27 28  1  0
 28 29  1  0
 29 30  1  0
 24 31  1  0
 31 32  1  0
 31 33  2  0
 19 34  1  0
 34 35  2  0
 35  3  1  0
 13  7  1  0
 35 16  1  0
 33 21  1  0
 30 25  1  0
M  END
$$$$
