
     RDKit          3D

 29 33  0  0  0  0  0  0  0  0999 V2000
  -16.2749   -2.6841  -37.1903 C   0  0  0  0  0  0  0  0  0  0  0  0
  -17.4537   -1.7823  -36.9281 C   0  0  2  0  0  0  0  0  0  0  0  0
  -17.6079   -0.8101  -38.0817 C   0  0  0  0  0  0  0  0  0  0  0  0
  -18.9522   -0.1762  -38.1086 C   0  0  0  0  0  0  0  0  0  0  0  0
  -19.4452   -0.1034  -39.2608 O   0  0  0  0  0  0  0  0  0  0  0  0
  -19.7443    0.3471  -37.0543 N   0  0  0  0  0  0  0  0  0  0  0  0
  -19.3347    0.4351  -35.6995 C   0  0  0  0  0  0  0  0  0  0  0  0
  -20.1727    1.2356  -34.9423 C   0  0  0  0  0  0  0  0  0  0  0  0
  -19.8868    1.4078  -33.6050 C   0  0  0  0  0  0  0  0  0  0  0  0
  -18.8050    0.8042  -33.0406 C   0  0  0  0  0  0  0  0  0  0  0  0
  -17.9284   -0.0154  -33.7666 C   0  0  0  0  0  0  0  0  0  0  0  0
  -16.8112   -0.6517  -33.0942 C   0  0  0  0  0  0  0  0  0  0  0  0
  -15.5238   -0.3926  -33.5326 C   0  0  0  0  0  0  0  0  0  0  0  0
  -14.4146   -0.9362  -32.9200 C   0  0  0  0  0  0  0  0  0  0  0  0
  -14.6063   -1.7637  -31.8353 C   0  0  0  0  0  0  0  0  0  0  0  0
  -15.8783   -2.0389  -31.3770 C   0  0  0  0  0  0  0  0  0  0  0  0
  -16.9623   -1.4816  -32.0100 C   0  0  0  0  0  0  0  0  0  0  0  0
  -15.7837   -2.8926  -30.2757 C   0  0  0  0  0  0  0  0  0  0  0  0
  -16.9091   -3.4041  -29.5111 C   0  0  0  0  0  0  0  0  0  0  0  0
  -18.2412   -3.5055  -29.8705 C   0  0  0  0  0  0  0  0  0  0  0  0
  -18.9034   -4.0410  -28.8320 N   0  0  0  0  0  0  0  0  0  0  0  0
  -18.0807   -4.2915  -27.8243 N   0  0  0  0  0  0  0  0  0  0  0  0
  -18.4627   -4.8763  -26.5329 C   0  0  0  0  0  0  0  0  0  0  0  0
  -16.8575   -3.9094  -28.2194 C   0  0  0  0  0  0  0  0  0  0  0  0
  -14.4691   -3.1032  -30.1074 N   0  0  0  0  0  0  0  0  0  0  0  0
  -13.7797   -2.4422  -31.0206 N   0  0  0  0  0  0  0  0  0  0  0  0
  -12.3443   -2.4467  -31.1296 C   0  0  0  0  0  0  0  0  0  0  0  0
  -18.2267   -0.1744  -35.0922 C   0  0  0  0  0  0  0  0  0  0  0  0
  -17.2530   -0.9998  -35.7240 N   0  0  0  0  0  0  0  0  0  0  0  0
  2  1  1  6
  2  3  1  0
  3  4  1  0
  4  5  2  0
  4  6  1  0
  6  7  1  0
  7  8  2  0
  8  9  1  0
  9 10  2  0
 10 11  1  0
 11 12  1  0
 12 13  2  0
 13 14  1  0
 14 15  2  0
 15 16  1  0
 16 17  2  0
 16 18  1  0
 18 19  1  0
 19 20  1  0
 20 21  2  0
 21 22  1  0
 22 23  1  0
 22 24  1  0
 18 25  2  0
 25 26  1  0
 26 27  1  0
 11 28  2  0
 28 29  1  0
 29  2  1  0
 28  7  1  0
 17 12  1  0
 24 19  2  0
 26 15  1  0
M  END
$$$$
