
     RDKit          3D

 19 20  0  0  0  0  0  0  0  0999 V2000
  -13.0784   47.9122  -11.0702 C   0  0  0  0  0  0  0  0  0  0  0  0
  -12.8494   47.3132  -12.3754 N   0  0  0  0  0  4  0  0  0  0  0  0
  -11.6368   46.9060  -12.7817 C   0  0  0  0  0  0  0  0  0  0  0  0
  -11.4163   46.3373  -14.0195 C   0  0  0  0  0  0  0  0  0  0  0  0
  -12.4693   46.1605  -14.9144 C   0  0  0  0  0  0  0  0  0  0  0  0
  -12.2026   45.5560  -16.2153 C   0  0  0  0  0  0  0  0  0  0  0  0
  -13.1338   45.3596  -17.1009 C   0  0  0  0  0  0  0  0  0  0  0  0
  -12.7870   44.7441  -18.3912 C   0  0  0  0  0  0  0  0  0  0  0  0
  -11.5497   44.3190  -18.8287 C   0  0  0  0  0  0  0  0  0  0  0  0
  -11.6617   43.8158  -20.0634 N   0  0  0  0  0  0  0  0  0  0  0  0
  -12.9429   43.8828  -20.4887 C   0  0  0  0  0  0  0  0  0  0  0  0
  -13.5786   43.5123  -21.6496 C   0  0  0  0  0  0  0  0  0  0  0  0
  -14.9309   43.7300  -21.7525 C   0  0  0  0  0  0  0  0  0  0  0  0
  -15.6617   44.3122  -20.7152 C   0  0  0  0  0  0  0  0  0  0  0  0
  -15.0018   44.6725  -19.5674 C   0  0  0  0  0  0  0  0  0  0  0  0
  -13.6438   44.4659  -19.4357 C   0  0  0  0  0  0  0  0  0  0  0  0
  -13.7059   46.5804  -14.4891 C   0  0  0  0  0  0  0  0  0  0  0  0
  -13.8791   47.1523  -13.2222 C   0  0  0  0  0  0  0  0  0  0  0  0
  -12.9288   45.2903  -16.6343 I   0  0  0  0  0 15  0  0  0  0  0  0
  1  2  1  0
  2  3  2  0
  3  4  1  0
  4  5  2  0
  5  6  1  0
  6  7  2  0
  7  8  1  0
  8  9  2  0
  9 10  1  0
 10 11  1  0
 11 12  2  0
 12 13  1  0
 13 14  2  0
 14 15  1  0
 15 16  2  0
  5 17  1  0
 17 18  2  0
 18  2  1  0
 16  8  1  0
 16 11  1  0
M  CHG  2   2   1  19  -1
M  END
$$$$
