
     RDKit          3D

 27 26  0  0  0  0  0  0  0  0999 V2000
  -26.1268   15.8299  -29.1758 O   0  0  0  0  0  0  0  0  0  0  0  0
  -27.1273   16.5666  -29.1963 C   0  0  0  0  0  0  0  0  0  0  0  0
  -27.3064   17.3165  -30.3807 O   0  0  0  0  0  0  0  0  0  0  0  0
  -28.1194   16.7287  -28.1331 C   0  0  0  0  0  0  0  0  0  0  0  0
  -29.0688   17.7571  -28.3792 N   0  0  0  0  0  0  0  0  0  0  0  0
  -30.4195   17.3266  -28.2030 C   0  0  0  0  0  0  0  0  0  0  0  0
  -30.7465   16.5956  -26.9664 C   0  0  0  0  0  0  0  0  0  0  0  0
  -32.0933   16.2010  -26.7415 N   0  0  0  0  0  0  0  0  0  0  0  0
  -33.0965   16.6879  -27.6098 C   0  0  0  0  0  0  0  0  0  0  0  0
  -33.2123   16.0493  -28.9246 C   0  0  0  0  0  0  0  0  0  0  0  0
  -32.4437   15.1457  -29.3240 O   0  0  0  0  0  0  0  0  0  0  0  0
  -34.2187   16.4526  -29.7900 O   0  0  0  0  0  0  0  0  0  0  0  0
  -32.2257   14.7921  -26.4290 C   0  0  0  0  0  0  0  0  0  0  0  0
  -33.2748   14.4867  -25.4530 C   0  0  0  0  0  0  0  0  0  0  0  0
  -34.0345   13.5068  -25.7325 O   0  0  0  0  0  0  0  0  0  0  0  0
  -33.5127   15.1521  -24.2778 O   0  0  0  0  0  0  0  0  0  0  0  0
  -28.6842   19.0470  -27.9328 C   0  0  0  0  0  0  0  0  0  0  0  0
  -29.4647   20.0856  -28.7174 C   0  0  0  0  0  0  0  0  0  0  0  0
  -28.7340   21.3272  -28.9355 N   0  0  0  0  0  0  0  0  0  0  0  0
  -29.3152   22.1780  -29.8818 C   0  0  0  0  0  0  0  0  0  0  0  0
  -29.5775   21.6198  -31.2053 C   0  0  0  0  0  0  0  0  0  0  0  0
  -30.1829   22.2873  -32.0777 O   0  0  0  0  0  0  0  0  0  0  0  0
  -29.1891   20.3233  -31.5976 O   0  0  0  0  0  0  0  0  0  0  0  0
  -28.3600   21.7999  -27.6585 C   0  0  0  0  0  0  0  0  0  0  0  0
  -28.2628   23.2075  -27.3676 C   0  0  0  0  0  0  0  0  0  0  0  0
  -27.7202   23.6039  -26.2803 O   0  0  0  0  0  0  0  0  0  0  0  0
  -28.7315   24.2246  -28.1844 O   0  0  0  0  0  0  0  0  0  0  0  0
  1  2  2  0
  2  3  1  0
  2  4  1  0
  4  5  1  0
  5  6  1  0
  6  7  1  0
  7  8  1  0
  8  9  1  0
  9 10  1  0
 10 11  2  0
 10 12  1  0
  8 13  1  0
 13 14  1  0
 14 15  2  0
 14 16  1  0
  5 17  1  0
 17 18  1  0
 18 19  1  0
 19 20  1  0
 20 21  1  0
 21 22  2  0
 21 23  1  0
 19 24  1  0
 24 25  1  0
 25 26  2  0
 25 27  1  0
M  END
$$$$
