
     RDKit          3D

 29 31  0  0  0  0  0  0  0  0999 V2000
  -23.3943   40.3144  -28.2483 C   0  0  0  0  0  0  0  0  0  0  0  0
  -22.6158   39.9910  -27.0552 N   0  0  0  0  0  0  0  0  0  0  0  0
  -21.2513   39.5710  -27.1484 C   0  0  0  0  0  0  0  0  0  0  0  0
  -20.8114   39.1817  -28.2623 O   0  0  0  0  0  0  0  0  0  0  0  0
  -20.4183   39.6163  -25.9171 C   0  0  0  0  0  0  0  0  0  0  0  0
  -21.2248   38.9675  -24.8072 C   0  0  1  0  0  0  0  0  0  0  0  0
  -20.4246   38.6907  -23.6125 C   0  0  0  0  0  0  0  0  0  0  0  0
  -20.9905   38.9015  -22.4905 O   0  0  0  0  0  0  0  0  0  0  0  0
  -19.1100   38.2213  -23.5851 N   0  0  0  0  0  0  0  0  0  0  0  0
  -18.1890   38.4975  -22.4519 C   0  0  1  0  0  0  0  0  0  0  0  0
  -17.0646   37.4821  -22.4990 C   0  0  0  0  0  0  0  0  0  0  0  0
  -17.5594   36.1062  -22.2323 C   0  0  0  0  0  0  0  0  0  0  0  0
  -17.9430   35.1210  -23.1170 C   0  0  0  0  0  0  0  0  0  0  0  0
  -18.3269   34.0154  -22.4228 N   0  0  0  0  0  0  0  0  0  0  0  0
  -18.1876   34.2996  -21.1307 C   0  0  0  0  0  0  0  0  0  0  0  0
  -17.7203   35.5720  -21.0084 N   0  0  0  0  0  0  0  0  0  0  0  0
  -17.6969   39.8947  -22.5823 C   0  0  0  0  0  0  0  0  0  0  0  0
  -17.2523   40.2795  -23.7339 O   0  0  0  0  0  0  0  0  0  0  0  0
  -17.6683   40.8605  -21.5597 N   0  0  0  0  0  0  0  0  0  0  0  0
  -17.9314   40.5176  -20.1449 C   0  0  0  0  0  0  0  0  0  0  0  0
  -17.1640   41.5796  -19.3842 C   0  0  0  0  0  0  0  0  0  0  0  0
  -17.5853   42.8141  -20.1904 C   0  0  0  0  0  0  0  0  0  0  0  0
  -17.3781   42.2697  -21.6128 C   0  0  1  0  0  0  0  0  0  0  0  0
  -15.9099   42.4988  -21.8792 C   0  0  0  0  0  0  0  0  0  0  0  0
  -15.5492   43.6671  -22.5989 N   0  0  0  0  0  0  0  0  0  0  0  0
  -15.0618   41.6800  -21.4734 O   0  0  0  0  0  0  0  0  0  0  0  0
  -22.3910   39.7552  -24.5910 N   0  0  0  0  0  0  0  0  0  0  0  0
  -23.1754   40.0781  -25.7494 C   0  0  0  0  0  0  0  0  0  0  0  0
  -24.3764   40.4470  -25.6546 O   0  0  0  0  0  0  0  0  0  0  0  0
  1  2  1  0
  2  3  1  0
  3  4  2  0
  3  5  1  0
  5  6  1  0
  6  7  1  1
  7  8  2  0
  7  9  1  0
  9 10  1  0
 10 11  1  6
 11 12  1  0
 12 13  2  0
 13 14  1  0
 14 15  2  0
 15 16  1  0
 10 17  1  0
 17 18  2  0
 17 19  1  0
 19 20  1  0
 20 21  1  0
 21 22  1  0
 22 23  1  0
 23 24  1  1
 24 25  1  0
 24 26  2  0
  6 27  1  0
 27 28  1  0
 28 29  2  0
 28  2  1  0
 16 12  1  0
 23 19  1  0
M  END
$$$$
