
     RDKit          3D

 40 44  0  0  0  0  0  0  0  0999 V2000
  -18.2741   37.2906  -27.4324 C   0  0  0  0  0  0  0  0  0  0  0  0
  -18.8380   38.3995  -26.7867 O   0  0  0  0  0  0  0  0  0  0  0  0
  -20.0982   38.8853  -27.1163 C   0  0  0  0  0  0  0  0  0  0  0  0
  -20.7164   38.3358  -28.2251 C   0  0  0  0  0  0  0  0  0  0  0  0
  -21.9765   38.7693  -28.6186 C   0  0  0  0  0  0  0  0  0  0  0  0
  -22.6019   39.7654  -27.8753 C   0  0  0  0  0  0  0  0  0  0  0  0
  -21.9633   40.2963  -26.7737 C   0  0  0  0  0  0  0  0  0  0  0  0
  -20.7121   39.8740  -26.3733 C   0  0  0  0  0  0  0  0  0  0  0  0
  -20.0818   40.4881  -25.1922 C   0  0  2  0  0  0  0  0  0  0  0  0
  -20.5665   39.9998  -23.8715 C   0  0  0  0  0  0  0  0  0  0  0  0
  -19.5636   39.5303  -22.9651 N   0  0  0  0  0  0  0  0  0  0  0  0
  -19.1456   38.2494  -22.9286 C   0  0  0  0  0  0  0  0  0  0  0  0
  -19.6487   37.3928  -23.6994 O   0  0  0  0  0  0  0  0  0  0  0  0
  -18.1841   37.9525  -22.0407 N   0  0  0  0  0  0  0  0  0  0  0  0
  -17.6527   36.5850  -21.9459 C   0  0  0  0  0  0  0  0  0  0  0  0
  -16.6104   36.4780  -20.8333 C   0  0  0  0  0  0  0  0  0  0  0  0
  -17.0266   36.1056  -23.2037 C   0  0  0  0  0  0  0  0  0  0  0  0
  -18.7407   35.6519  -21.5759 C   0  0  0  0  0  0  0  0  0  0  0  0
  -18.4472   34.4660  -21.2960 O   0  0  0  0  0  0  0  0  0  0  0  0
  -20.0732   36.0259  -21.5235 O   0  0  0  0  0  0  0  0  0  0  0  0
  -17.6184   38.8312  -21.1967 C   0  0  0  0  0  0  0  0  0  0  0  0
  -16.7255   38.4446  -20.4040 O   0  0  0  0  0  0  0  0  0  0  0  0
  -18.0453   40.1885  -21.2188 C   0  0  0  0  0  0  0  0  0  0  0  0
  -17.5787   41.2005  -20.4506 C   0  0  0  0  0  0  0  0  0  0  0  0
  -16.5006   41.1033  -19.3789 C   0  0  0  0  0  0  0  0  0  0  0  0
  -18.1374   42.4418  -20.6588 C   0  0  0  0  0  0  0  0  0  0  0  0
  -17.8574   43.7190  -20.0128 C   0  0  0  0  0  0  0  0  0  0  0  0
  -18.5360   44.8389  -20.2165 N   0  0  0  0  0  0  0  0  0  0  0  0
  -18.0049   45.8237  -19.4551 C   0  0  0  0  0  0  0  0  0  0  0  0
  -16.9626   45.2241  -18.7799 C   0  0  0  0  0  0  0  0  0  0  0  0
  -16.9073   43.9648  -19.1412 O   0  0  0  0  0  0  0  0  0  0  0  0
  -19.3165   42.1659  -21.9363 S   0  0  0  0  0  0  0  0  0  0  0  0
  -19.0041   40.4422  -22.1185 C   0  0  0  0  0  0  0  0  0  0  0  0
  -20.2094   41.8864  -25.2988 O   0  0  0  0  0  0  0  0  0  0  0  0
  -19.1535   42.4770  -25.9599 C   0  0  0  0  0  0  0  0  0  0  0  0
  -19.5802   43.7740  -26.5665 C   0  0  0  0  0  0  0  0  0  0  0  0
  -18.4813   44.7093  -26.9331 C   0  0  0  0  0  0  0  0  0  0  0  0
  -17.3660   44.6456  -26.1234 O   0  0  0  0  0  0  0  0  0  0  0  0
  -16.8901   43.3743  -25.9319 C   0  0  0  0  0  0  0  0  0  0  0  0
  -17.9327   42.6401  -25.0884 C   0  0  0  0  0  0  0  0  0  0  0  0
  1  2  1  0
  2  3  1  0
  3  4  2  0
  4  5  1  0
  5  6  2  0
  6  7  1  0
  7  8  2  0
  8  9  1  0
  9 10  1  1
 10 11  1  0
 11 12  1  0
 12 13  2  0
 12 14  1  0
 14 15  1  0
 15 16  1  0
 15 17  1  0
 15 18  1  0
 18 19  2  0
 18 20  1  0
 14 21  1  0
 21 22  2  0
 21 23  1  0
 23 24  1  0
 24 25  1  0
 24 26  2  0
 26 27  1  0
 27 28  2  0
 28 29  1  0
 29 30  2  0
 30 31  1  0
 26 32  1  0
 32 33  1  0
  9 34  1  0
 34 35  1  0
 35 36  1  0
 36 37  1  0
 37 38  1  0
 38 39  1  0
 39 40  1  0
  8  3  1  0
 33 11  1  0
 40 35  1  0
 33 23  2  0
 31 27  1  0
M  END
$$$$
