
     RDKit          3D

 30 33  0  0  0  0  0  0  0  0999 V2000
  -14.6382   18.1019  -28.3871 O   0  0  0  0  0  0  0  0  0  0  0  0
  -15.4120   17.7805  -29.3447 C   0  0  0  0  0  0  0  0  0  0  0  0
  -16.2191   18.4562  -29.9783 O   0  0  0  0  0  0  0  0  0  0  0  0
  -16.2132   20.0380  -30.1844 C   0  0  0  0  0  0  0  0  0  0  0  0
  -15.9124   20.1762  -31.1980 C   0  0  0  0  0  0  0  0  0  0  0  0
  -15.4963   20.3429  -32.5350 C   0  0  0  0  0  0  0  0  0  0  0  0
  -15.0304   20.5264  -33.9621 C   0  0  0  0  0  0  0  0  0  0  0  0
  -15.2701   18.8022  -34.6558 S   0  0  0  0  0  0  0  0  0  0  0  0
  -17.0921   18.6279  -34.5898 C   0  0  0  0  0  0  0  0  0  0  0  0
  -18.0816   19.5001  -34.4971 N   0  0  0  0  0  0  0  0  0  0  0  0
  -19.2713   18.7714  -34.3194 N   0  0  0  0  0  0  0  0  0  0  0  0
  -18.9460   17.5308  -34.3720 C   0  0  0  0  0  0  0  0  0  0  0  0
  -19.6137   16.1669  -34.3485 C   0  0  0  0  0  0  0  0  0  0  0  0
  -19.4439   15.6142  -33.0773 C   0  0  0  0  0  0  0  0  0  0  0  0
  -19.6617   14.2473  -32.9000 C   0  0  0  0  0  0  0  0  0  0  0  0
  -20.0684   13.5112  -33.9908 C   0  0  0  0  0  0  0  0  0  0  0  0
  -20.2214   14.0523  -35.2490 C   0  0  0  0  0  0  0  0  0  0  0  0
  -20.4393   13.2814  -36.3172 C   0  0  0  0  0  0  0  0  0  0  0  0
  -20.4675   13.8303  -37.6249 C   0  0  0  0  0  0  0  0  0  0  0  0
  -20.2512   15.2078  -37.7637 C   0  0  0  0  0  0  0  0  0  0  0  0
  -20.0147   15.9976  -36.6615 C   0  0  0  0  0  0  0  0  0  0  0  0
  -19.9665   15.4472  -35.3659 C   0  0  0  0  0  0  0  0  0  0  0  0
  -17.6252   17.4637  -34.5270 O   0  0  0  0  0  0  0  0  0  0  0  0
  -15.2991   16.2829  -29.8632 C   0  0  0  0  0  0  0  0  0  0  0  0
  -16.5137   15.9179  -30.3611 C   0  0  0  0  0  0  0  0  0  0  0  0
  -16.7755   14.4954  -30.1255 C   0  0  0  0  0  0  0  0  0  0  0  0
  -15.8645   13.7380  -29.4792 C   0  0  0  0  0  0  0  0  0  0  0  0
  -16.2104   12.4436  -29.0589 F   0  0  0  0  0  0  0  0  0  0  0  0
  -14.6588   14.2347  -29.0390 C   0  0  0  0  0  0  0  0  0  0  0  0
  -14.3474   15.6173  -29.2806 C   0  0  0  0  0  0  0  0  0  0  0  0
  1  2  2  0
  2  3  1  0
  3  4  1  0
  4  5  1  0
  5  6  3  0
  6  7  1  0
  7  8  1  0
  8  9  1  0
  9 10  2  0
 10 11  1  0
 11 12  2  0
 12 13  1  0
 13 14  2  0
 14 15  1  0
 15 16  2  0
 16 17  1  0
 17 18  2  0
 18 19  1  0
 19 20  2  0
 20 21  1  0
 21 22  2  0
 12 23  1  0
  2 24  1  0
 24 25  2  0
 25 26  1  0
 26 27  2  0
 27 28  1  0
 27 29  1  0
 29 30  2  0
 23  9  1  0
 30 24  1  0
 22 13  1  0
 22 17  1  0
M  END
$$$$
