
     RDKit          3D

 31 35  0  0  0  0  0  0  0  0999 V2000
  -15.0162   31.9389  -23.4874 C   0  0  0  0  0  0  0  0  0  0  0  0
  -15.5923   33.2292  -22.9522 C   0  0  0  0  0  0  0  0  0  0  0  0
  -16.0998   34.1382  -24.0056 C   0  0  0  0  0  0  0  0  0  0  0  0
  -17.0267   35.2194  -23.6042 C   0  0  0  0  0  0  0  0  0  0  0  0
  -18.0106   35.3845  -24.5495 O   0  0  0  0  0  0  0  0  0  0  0  0
  -19.2324   35.3952  -23.9395 C   0  0  2  0  0  0  0  0  0  0  0  0
  -19.9263   36.7079  -24.2872 C   0  0  0  0  0  0  0  0  0  0  0  0
  -19.1646   37.6408  -23.4377 C   0  0  1  0  0  0  0  0  0  0  0  0
  -19.7279   39.0201  -23.2452 C   0  0  2  0  0  0  0  0  0  0  0  0
  -19.9073   39.5872  -24.6464 C   0  0  0  0  0  0  0  0  0  0  0  0
  -20.1011   41.0812  -24.6246 C   0  0  0  0  0  0  0  0  0  0  0  0
  -19.0939   41.7595  -23.7736 C   0  0  0  0  0  0  0  0  0  0  0  0
  -18.4045   42.7577  -24.2439 C   0  0  0  0  0  0  0  0  0  0  0  0
  -17.4307   43.4082  -23.4108 C   0  0  0  0  0  0  0  0  0  0  0  0
  -16.7692   44.3752  -23.8804 O   0  0  0  0  0  0  0  0  0  0  0  0
  -17.2166   42.9572  -22.0567 C   0  0  0  0  0  0  0  0  0  0  0  0
  -17.9360   41.9402  -21.6142 C   0  0  0  0  0  0  0  0  0  0  0  0
  -18.9517   41.2089  -22.3786 C   0  0  1  0  0  0  0  0  0  0  0  0
  -20.3063   41.4170  -21.7361 C   0  0  0  0  0  0  0  0  0  0  0  0
  -18.5920   39.7712  -22.5355 C   0  0  1  0  0  0  0  0  0  0  0  0
  -18.0873   39.0978  -21.3211 C   0  0  1  0  0  0  0  0  0  0  0  0
  -18.7011   39.5515  -20.1279 O   0  0  0  0  0  0  0  0  0  0  0  0
  -18.0597   37.6230  -21.2983 C   0  0  0  0  0  0  0  0  0  0  0  0
  -19.1539   36.9655  -22.0891 C   0  0  1  0  0  0  0  0  0  0  0  0
  -20.4330   37.1752  -21.3175 C   0  0  0  0  0  0  0  0  0  0  0  0
  -18.9315   35.5373  -22.4530 C   0  0  1  0  0  0  0  0  0  0  0  0
  -19.8571   34.6277  -21.7539 C   0  0  0  0  0  0  0  0  0  0  0  0
  -20.9440   35.0190  -21.4173 O   0  0  0  0  0  0  0  0  0  0  0  0
  -19.4712   33.2370  -21.4567 C   0  0  0  0  0  0  0  0  0  0  0  0
  -20.5578   32.4585  -21.0586 O   0  0  0  0  0  0  0  0  0  0  0  0
  -17.6071   35.1342  -22.3720 O   0  0  0  0  0  0  0  0  0  0  0  0
  1  2  1  0
  2  3  1  0
  3  4  1  0
  4  5  1  0
  5  6  1  0
  6  7  1  6
  8  7  1  6
  8  9  1  0
  9 10  1  6
 10 11  1  0
 11 12  1  0
 12 13  2  0
 13 14  1  0
 14 15  2  0
 14 16  1  0
 16 17  2  0
 17 18  1  0
 18 19  1  1
 18 20  1  0
 20 21  1  1
 21 22  1  1
 21 23  1  0
 23 24  1  0
 24 25  1  1
 24 26  1  0
 26 27  1  1
 27 28  2  0
 27 29  1  0
 29 30  1  0
 26 31  1  0
 31  4  1  0
 26  6  1  0
 24  8  1  0
 20  9  1  0
 18 12  1  0
M  END
$$$$
