
     RDKit          3D

 42 46  0  0  0  0  0  0  0  0999 V2000
  -23.4313   22.7836  -32.8376 C   0  0  0  0  0  0  0  0  0  0  0  0
  -22.1086   22.1100  -32.8245 C   0  0  0  0  0  0  0  0  0  0  0  0
  -21.3070   22.0199  -33.9487 C   0  0  0  0  0  0  0  0  0  0  0  0
  -20.0609   21.3830  -33.9306 C   0  0  0  0  0  0  0  0  0  0  0  0
  -19.6109   20.8299  -32.7761 C   0  0  0  0  0  0  0  0  0  0  0  0
  -18.3870   20.1540  -32.5805 N   0  0  0  0  0  0  0  0  0  0  0  0
  -18.1935   18.7549  -32.4425 C   0  0  0  0  0  0  0  0  0  0  0  0
  -19.1793   18.0438  -32.2044 O   0  0  0  0  0  0  0  0  0  0  0  0
  -16.8374   18.1494  -32.5798 C   0  0  1  0  0  0  0  0  0  0  0  0
  -15.9038   19.1466  -31.8930 C   0  0  0  0  0  0  0  0  0  0  0  0
  -16.2899   19.3118  -30.4362 C   0  0  0  0  0  0  0  0  0  0  0  0
  -16.6420   17.9927  -29.7838 C   0  0  0  0  0  0  0  0  0  0  0  0
  -16.2156   16.8871  -30.6002 N   0  0  0  0  0  0  0  0  0  0  0  0
  -15.2928   15.9428  -30.0537 C   0  0  0  0  0  0  0  0  0  0  0  0
  -14.7209   16.1986  -28.9727 O   0  0  0  0  0  0  0  0  0  0  0  0
  -15.0130   14.6919  -30.7338 C   0  0  0  0  0  0  0  0  0  0  0  0
  -15.8906   13.6569  -30.7995 C   0  0  0  0  0  0  0  0  0  0  0  0
  -17.2105   13.7291  -30.1646 C   0  0  0  0  0  0  0  0  0  0  0  0
  -15.5632   12.4891  -31.4743 C   0  0  0  0  0  0  0  0  0  0  0  0
  -14.3318   12.4131  -32.0697 C   0  0  0  0  0  0  0  0  0  0  0  0
  -13.4207   13.4528  -32.0170 C   0  0  0  0  0  0  0  0  0  0  0  0
  -13.7637   14.6033  -31.3432 C   0  0  0  0  0  0  0  0  0  0  0  0
  -12.8820   15.6254  -31.2833 F   0  0  0  0  0  0  0  0  0  0  0  0
  -16.7003   16.7825  -31.9708 C   0  0  1  0  0  0  0  0  0  0  0  0
  -17.8585   15.9058  -32.1086 C   0  0  0  0  0  0  0  0  0  0  0  0
  -18.4630   15.6425  -33.3230 C   0  0  0  0  0  0  0  0  0  0  0  0
  -19.5551   14.8110  -33.4401 C   0  0  0  0  0  0  0  0  0  0  0  0
  -20.0886   14.2049  -32.3311 C   0  0  0  0  0  0  0  0  0  0  0  0
  -21.2279   13.3391  -32.4732 N   0  0  0  0  0  0  0  0  0  0  0  0
  -21.6701   12.8630  -33.7534 C   0  0  0  0  0  0  0  0  0  0  0  0
  -22.0889   11.4009  -33.6034 C   0  0  0  0  0  0  0  0  0  0  0  0
  -23.4271   11.5072  -32.9111 C   0  0  0  0  0  0  0  0  0  0  0  0
  -24.0758   12.6812  -33.5924 C   0  0  0  0  0  0  0  0  0  0  0  0
  -22.9738   13.5331  -34.1771 C   0  0  0  0  0  0  0  0  0  0  0  0
  -19.5140   14.4433  -31.1035 C   0  0  0  0  0  0  0  0  0  0  0  0
  -18.4087   15.2904  -31.0135 C   0  0  0  0  0  0  0  0  0  0  0  0
  -20.4257   20.9209  -31.6325 C   0  0  0  0  0  0  0  0  0  0  0  0
  -21.6465   21.5462  -31.6542 C   0  0  0  0  0  0  0  0  0  0  0  0
  -22.4916   21.6259  -30.4143 C   0  0  0  0  0  0  0  0  0  0  0  0
  -23.8052   21.3100  -30.6676 F   0  0  0  0  0  0  0  0  0  0  0  0
  -22.0085   20.8455  -29.4055 F   0  0  0  0  0  0  0  0  0  0  0  0
  -22.5017   22.9562  -29.9699 F   0  0  0  0  0  0  0  0  0  0  0  0
  1  2  1  0
  2  3  2  0
  3  4  1  0
  4  5  2  0
  5  6  1  0
  6  7  1  0
  7  8  2  0
  9  7  1  1
  9 10  1  0
 10 11  1  0
 11 12  1  0
 12 13  1  0
 13 14  1  0
 14 15  2  0
 14 16  1  0
 16 17  2  0
 17 18  1  0
 17 19  1  0
 19 20  2  0
 20 21  1  0
 21 22  2  0
 22 23  1  0
 13 24  1  0
 24 25  1  1
 25 26  2  0
 26 27  1  0
 27 28  2  0
 28 29  1  0
 29 30  1  0
 30 31  1  0
 31 32  1  0
 32 33  1  0
 33 34  1  0
 28 35  1  0
 35 36  2  0
  5 37  1  0
 37 38  2  0
 38 39  1  0
 39 40  1  0
 39 41  1  0
 39 42  1  0
 38  2  1  0
 24  9  1  0
 36 25  1  0
 22 16  1  0
 34 30  1  0
M  END
$$$$
