
     RDKit          3D

 30 32  0  0  0  0  0  0  0  0999 V2000
  -15.9913   33.6755  -22.9779 C   0  0  0  0  0  0  0  0  0  0  0  0
  -16.7648   34.7202  -22.4459 O   0  0  0  0  0  0  0  0  0  0  0  0
  -18.1278   34.5323  -22.2938 C   0  0  0  0  0  0  0  0  0  0  0  0
  -18.7135   33.3631  -22.7269 C   0  0  0  0  0  0  0  0  0  0  0  0
  -20.0524   33.1608  -22.5857 C   0  0  0  0  0  0  0  0  0  0  0  0
  -20.7927   34.1585  -21.9984 C   0  0  0  0  0  0  0  0  0  0  0  0
  -22.1198   34.0390  -21.8212 F   0  0  0  0  0  0  0  0  0  0  0  0
  -20.2022   35.3459  -21.5566 C   0  0  0  0  0  0  0  0  0  0  0  0
  -20.9652   36.2805  -20.9271 F   0  0  0  0  0  0  0  0  0  0  0  0
  -18.8556   35.5665  -21.6932 C   0  0  0  0  0  0  0  0  0  0  0  0
  -18.1259   36.7133  -21.2327 C   0  0  0  0  0  0  0  0  0  0  0  0
  -17.2923   36.5054  -20.2729 O   0  0  0  0  0  0  0  0  0  0  0  0
  -18.2335   38.0601  -21.7351 C   0  0  0  0  0  0  0  0  0  0  0  0
  -18.4567   38.3361  -23.0556 C   0  0  0  0  0  0  0  0  0  0  0  0
  -18.4912   39.6159  -23.4928 N   0  0  0  0  0  0  0  0  0  0  0  0
  -18.3075   40.6493  -22.6532 C   0  0  0  0  0  0  0  0  0  0  0  0
  -18.3578   41.9554  -23.1855 N   0  0  0  0  0  0  0  0  0  0  0  0
  -17.9314   43.0588  -22.3651 C   0  0  0  0  0  0  0  0  0  0  0  0
  -17.0133   43.9337  -23.1228 C   0  0  0  0  0  0  0  0  0  0  0  0
  -17.3012   45.3999  -23.0407 C   0  0  0  0  0  0  0  0  0  0  0  0
  -18.6541   45.7750  -23.0908 N   0  0  0  0  0  0  0  0  0  0  0  0
  -19.0390   47.1820  -22.1838 S   0  0  0  0  0  6  0  0  0  0  0  0
  -19.0572   46.6953  -20.4536 C   0  0  0  0  0  0  0  0  0  0  0  0
  -20.3478   47.7763  -22.5581 O   0  0  0  0  0  0  0  0  0  0  0  0
  -17.9478   48.2053  -22.3167 O   0  0  0  0  0  0  0  0  0  0  0  0
  -19.6083   44.7122  -22.9295 C   0  0  0  0  0  0  0  0  0  0  0  0
  -19.1111   43.8320  -21.8021 C   0  0  0  0  0  0  0  0  0  0  0  0
  -18.0829   40.4103  -21.3411 N   0  0  0  0  0  0  0  0  0  0  0  0
  -18.0429   39.1552  -20.8726 C   0  0  0  0  0  0  0  0  0  0  0  0
  -17.8123   38.8412  -19.5101 N   0  0  0  0  0  0  0  0  0  0  0  0
  1  2  1  0
  2  3  1  0
  3  4  2  0
  4  5  1  0
  5  6  2  0
  6  7  1  0
  6  8  1  0
  8  9  1  0
  8 10  2  0
 10 11  1  0
 11 12  2  0
 11 13  1  0
 13 14  2  0
 14 15  1  0
 15 16  2  0
 16 17  1  0
 17 18  1  0
 18 19  1  0
 19 20  1  0
 20 21  1  0
 21 22  1  0
 22 23  1  0
 22 24  2  0
 22 25  2  0
 21 26  1  0
 26 27  1  0
 16 28  1  0
 28 29  2  0
 29 30  1  0
 10  3  1  0
 29 13  1  0
 27 18  1  0
M  END
$$$$
