
     RDKit          3D

 20 20  0  0  0  0  0  0  0  0999 V2000
  -25.1454   18.7319  -26.7187 C   0  0  0  0  0  0  0  0  0  0  0  0
  -26.1761   19.7881  -26.4350 C   0  0  0  0  0  0  0  0  0  0  0  0
  -26.7233   20.5119  -27.5882 C   0  0  0  0  0  0  0  0  0  0  0  0
  -27.4242   19.9218  -28.6098 N   0  0  0  0  0  0  0  0  0  0  0  0
  -27.7607   20.8489  -29.6555 C   0  0  0  0  0  0  0  0  0  0  0  0
  -28.7330   21.9278  -29.2513 C   0  0  0  0  0  0  0  0  0  0  0  0
  -29.0126   22.7941  -30.4476 C   0  0  0  0  0  0  0  0  0  0  0  0
  -27.4451   18.5676  -28.9363 C   0  0  0  0  0  0  0  0  0  0  0  0
  -28.1535   17.6029  -28.0998 C   0  0  0  0  0  0  0  0  0  0  0  0
  -29.6097   17.6633  -27.9716 C   0  0  0  0  0  0  0  0  0  0  0  0
  -30.4345   18.4084  -28.7850 C   0  0  0  0  0  0  0  0  0  0  0  0
  -31.8197   18.3851  -28.6268 C   0  0  0  0  0  0  0  0  0  0  0  0
  -32.3606   17.6018  -27.6465 C   0  0  0  0  0  0  0  0  0  0  0  0
  -31.5444   16.8377  -26.8130 C   0  0  0  0  0  0  0  0  0  0  0  0
  -30.1653   16.8714  -26.9787 C   0  0  0  0  0  0  0  0  0  0  0  0
  -29.5637   15.9952  -25.9395 C   0  0  0  0  0  0  0  0  0  0  0  0
  -30.6867   15.3673  -25.2259 C   0  0  0  0  0  0  0  0  0  0  0  0
  -30.6036   14.4851  -24.3032 O   0  0  0  0  0  0  0  0  0  0  0  0
  -31.8706   15.9325  -25.7545 N   0  0  0  0  0  0  0  0  0  0  0  0
  -29.0930   18.4557  -27.7156 Cl  0  0  0  0  0  0  0  0  0  0  0  0
  1  2  1  0
  2  3  1  0
  3  4  1  0
  4  5  1  0
  5  6  1  0
  6  7  1  0
  4  8  1  0
  8  9  1  0
  9 10  1  0
 10 11  2  0
 11 12  1  0
 12 13  2  0
 13 14  1  0
 14 15  2  0
 15 16  1  0
 16 17  1  0
 17 18  2  0
 17 19  1  0
 15 10  1  0
 19 14  1  0
M  END
$$$$
