
     RDKit          3D

 27 30  0  0  0  0  0  0  0  0999 V2000
  -10.9785   17.1416  -39.7670 C   0  0  0  0  0  0  0  0  0  0  0  0
  -12.0763   17.3423  -38.7586 C   0  0  0  0  0  0  0  0  0  0  0  0
  -13.2255   16.5941  -38.6383 C   0  0  0  0  0  0  0  0  0  0  0  0
  -13.9406   17.1281  -37.5878 C   0  0  0  0  0  0  0  0  0  0  0  0
  -15.1623   16.7900  -37.0136 C   0  0  0  0  0  0  0  0  0  0  0  0
  -15.8669   15.7494  -37.5078 F   0  0  0  0  0  0  0  0  0  0  0  0
  -15.6659   17.4981  -35.9497 C   0  0  0  0  0  0  0  0  0  0  0  0
  -16.8787   17.1315  -35.4099 O   0  0  0  0  0  0  0  0  0  0  0  0
  -16.8508   16.2742  -34.3064 C   0  0  0  0  0  0  0  0  0  0  0  0
  -15.7375   15.7733  -33.7901 N   0  0  0  0  0  0  0  0  0  0  0  0
  -15.7879   14.9545  -32.7272 C   0  0  0  0  0  0  0  0  0  0  0  0
  -16.9678   14.6262  -32.1652 N   0  0  0  0  0  0  0  0  0  0  0  0
  -18.1129   15.1053  -32.6496 N   0  0  0  0  0  0  0  0  0  0  0  0
  -19.4091   14.9306  -32.2722 C   0  0  0  0  0  0  0  0  0  0  0  0
  -20.2293   15.6535  -33.1096 C   0  0  0  0  0  0  0  0  0  0  0  0
  -21.5885   15.7813  -33.1145 O   0  0  0  0  0  0  0  0  0  0  0  0
  -22.5315   15.2008  -32.2955 C   0  0  0  0  0  0  0  0  0  0  0  0
  -23.3641   14.1126  -32.8826 C   0  0  1  0  0  0  0  0  0  0  0  0
  -22.9293   12.8152  -32.1807 C   0  0  0  0  0  0  0  0  0  0  0  0
  -24.7102   14.2637  -32.5532 O   0  0  0  0  0  0  0  0  0  0  0  0
  -19.3695   16.2742  -34.0114 C   0  0  0  0  0  0  0  0  0  0  0  0
  -19.8034   17.1658  -35.1116 C   0  0  0  0  0  0  0  0  0  0  0  0
  -18.0706   15.9256  -33.7135 C   0  0  0  0  0  0  0  0  0  0  0  0
  -14.9284   18.5618  -35.4574 C   0  0  0  0  0  0  0  0  0  0  0  0
  -13.7195   18.9185  -36.0039 C   0  0  0  0  0  0  0  0  0  0  0  0
  -13.2212   18.2080  -37.0663 C   0  0  0  0  0  0  0  0  0  0  0  0
  -12.1062   18.2888  -37.8127 N   0  0  0  0  0  0  0  0  0  0  0  0
  1  2  1  0
  2  3  2  0
  3  4  1  0
  4  5  2  0
  5  6  1  0
  5  7  1  0
  7  8  1  0
  8  9  1  0
  9 10  2  0
 10 11  1  0
 11 12  2  0
 12 13  1  0
 13 14  1  0
 14 15  2  0
 15 16  1  0
 16 17  1  0
 17 18  1  0
 18 19  1  1
 18 20  1  0
 15 21  1  0
 21 22  1  0
 21 23  2  0
  7 24  2  0
 24 25  1  0
 25 26  2  0
 26 27  1  0
 27  2  1  0
 26  4  1  0
 23  9  1  0
 23 13  1  0
M  END
$$$$
