
     RDKit          3D

 44 48  0  0  0  0  0  0  0  0999 V2000
  -21.8870   28.2371  -33.4020 C   0  0  0  0  0  0  0  0  0  0  0  0
  -22.3774   26.8499  -33.7429 C   0  0  0  0  0  0  0  0  0  0  0  0
  -23.3883   26.4681  -32.8584 O   0  0  0  0  0  0  0  0  0  0  0  0
  -23.6247   25.1403  -32.5016 C   0  0  0  0  0  0  0  0  0  0  0  0
  -24.7117   24.4335  -32.9652 C   0  0  0  0  0  0  0  0  0  0  0  0
  -24.9168   23.1206  -32.5932 C   0  0  0  0  0  0  0  0  0  0  0  0
  -24.0514   22.4533  -31.7453 C   0  0  0  0  0  0  0  0  0  0  0  0
  -24.2847   21.0959  -31.3804 N   0  0  0  0  0  0  0  0  0  0  0  0
  -23.6648   20.0736  -32.0481 C   0  0  0  0  0  0  0  0  0  0  0  0
  -22.7667   20.4499  -33.1223 C   0  0  1  0  0  0  0  0  0  0  0  0
  -21.3220   20.3955  -32.6182 C   0  0  0  0  0  0  0  0  0  0  0  0
  -22.8508   19.6664  -34.3450 N   0  0  0  0  0  0  0  0  0  0  0  0
  -22.9302   18.2428  -34.3740 C   0  0  0  0  0  0  0  0  0  0  0  0
  -21.6793   17.4737  -34.4420 C   0  0  0  0  0  0  0  0  0  0  0  0
  -20.5022   18.2110  -34.6341 C   0  0  0  0  0  0  0  0  0  0  0  0
  -19.3253   17.5141  -34.6841 C   0  0  0  0  0  0  0  0  0  0  0  0
  -19.2752   16.1619  -34.5546 C   0  0  0  0  0  0  0  0  0  0  0  0
  -20.4120   15.4916  -34.3725 N   0  0  0  0  0  0  0  0  0  0  0  0
  -21.6039   16.0938  -34.3116 C   0  0  0  0  0  0  0  0  0  0  0  0
  -22.8850   20.4121  -35.5454 C   0  0  0  0  0  0  0  0  0  0  0  0
  -22.6818   21.6458  -35.5048 O   0  0  0  0  0  0  0  0  0  0  0  0
  -23.1538   19.7937  -36.8452 C   0  0  0  0  0  0  0  0  0  0  0  0
  -23.2760   20.8543  -37.9246 C   0  0  0  0  0  0  0  0  0  0  0  0
  -24.3682   21.6872  -38.0071 C   0  0  0  0  0  0  0  0  0  0  0  0
  -24.4933   22.6562  -38.9841 C   0  0  0  0  0  0  0  0  0  0  0  0
  -23.4949   22.7890  -39.8994 C   0  0  0  0  0  0  0  0  0  0  0  0
  -23.6216   23.7582  -40.8755 O   0  0  0  0  0  0  0  0  0  0  0  0
  -23.7058   23.4585  -42.2562 C   0  0  0  0  0  0  0  0  0  0  0  0
  -22.4543   22.9892  -42.6376 F   0  0  0  0  0  0  0  0  0  0  0  0
  -24.6243   22.4903  -42.5530 F   0  0  0  0  0  0  0  0  0  0  0  0
  -23.9383   24.5949  -43.0078 F   0  0  0  0  0  0  0  0  0  0  0  0
  -22.3997   21.9848  -39.8514 C   0  0  0  0  0  0  0  0  0  0  0  0
  -22.2778   21.0042  -38.8588 C   0  0  0  0  0  0  0  0  0  0  0  0
  -23.9419   18.8372  -31.6415 N   0  0  0  0  0  0  0  0  0  0  0  0
  -24.7579   18.4821  -30.6539 C   0  0  0  0  0  0  0  0  0  0  0  0
  -24.9761   17.2206  -30.3155 N   0  0  0  0  0  0  0  0  0  0  0  0
  -25.8014   16.9178  -29.3204 C   0  0  0  0  0  0  0  0  0  0  0  0
  -26.4631   17.8741  -28.5991 C   0  0  0  0  0  0  0  0  0  0  0  0
  -26.2469   19.1927  -28.9386 C   0  0  0  0  0  0  0  0  0  0  0  0
  -25.3983   19.5047  -29.9619 C   0  0  0  0  0  0  0  0  0  0  0  0
  -25.1160   20.7754  -30.3770 C   0  0  0  0  0  0  0  0  0  0  0  0
  -25.6976   21.7249  -29.7499 O   0  0  0  0  0  0  0  0  0  0  0  0
  -22.9662   23.1768  -31.2893 C   0  0  0  0  0  0  0  0  0  0  0  0
  -22.7509   24.4933  -31.6556 C   0  0  0  0  0  0  0  0  0  0  0  0
  1  2  1  0
  2  3  1  0
  3  4  1  0
  4  5  2  0
  5  6  1  0
  6  7  2  0
  7  8  1  0
  8  9  1  0
  9 10  1  0
 10 11  1  1
 10 12  1  0
 12 13  1  0
 13 14  1  0
 14 15  2  0
 15 16  1  0
 16 17  2  0
 17 18  1  0
 18 19  2  0
 12 20  1  0
 20 21  2  0
 20 22  1  0
 22 23  1  0
 23 24  2  0
 24 25  1  0
 25 26  2  0
 26 27  1  0
 27 28  1  0
 28 29  1  0
 28 30  1  0
 28 31  1  0
 26 32  1  0
 32 33  2  0
  9 34  2  0
 34 35  1  0
 35 36  2  0
 36 37  1  0
 37 38  2  0
 38 39  1  0
 39 40  2  0
 40 41  1  0
 41 42  2  0
  7 43  1  0
 43 44  2  0
 44  4  1  0
 41  8  1  0
 19 14  1  0
 33 23  1  0
 40 35  1  0
M  END
$$$$
