
     RDKit          3D

 24 26  0  0  0  0  0  0  0  0999 V2000
  -11.1298   -6.6153  -25.2096 C   0  0  0  0  0  0  0  0  0  0  0  0
  -12.4551   -6.9996  -24.9134 O   0  0  0  0  0  0  0  0  0  0  0  0
  -13.5563   -6.2211  -25.2324 C   0  0  0  0  0  0  0  0  0  0  0  0
  -13.6459   -5.6004  -26.4580 C   0  0  0  0  0  0  0  0  0  0  0  0
  -14.7617   -4.8348  -26.7314 C   0  0  0  0  0  0  0  0  0  0  0  0
  -14.8729   -4.1980  -27.9650 C   0  0  0  0  0  0  0  0  0  0  0  0
  -15.9966   -3.4498  -28.1913 C   0  0  0  0  0  0  0  0  0  0  0  0
  -16.1802   -2.7456  -29.4807 C   0  0  0  0  0  0  0  0  0  0  0  0
  -17.2714   -2.1438  -29.7097 O   0  0  0  0  0  0  0  0  0  0  0  0
  -15.2122   -2.6898  -30.5009 N   0  0  0  0  0  0  0  0  0  0  0  0
  -15.3858   -1.9370  -31.7056 C   0  0  0  0  0  0  0  0  0  0  0  0
  -14.6121   -0.8113  -31.9202 C   0  0  0  0  0  0  0  0  0  0  0  0
  -14.7586   -0.0603  -33.0811 C   0  0  0  0  0  0  0  0  0  0  0  0
  -15.6977   -0.4756  -34.0058 C   0  0  0  0  0  0  0  0  0  0  0  0
  -16.4695   -1.5974  -33.7932 C   0  0  0  0  0  0  0  0  0  0  0  0
  -16.3114   -2.3330  -32.6337 C   0  0  0  0  0  0  0  0  0  0  0  0
  -16.9860   -3.3327  -27.2252 C   0  0  0  0  0  0  0  0  0  0  0  0
  -18.1323   -2.5440  -27.5109 N   0  0  0  0  0  0  0  0  0  0  0  0
  -16.8309   -3.9637  -26.0582 N   0  0  0  0  0  0  0  0  0  0  0  0
  -15.7581   -4.7031  -25.7879 C   0  0  0  0  0  0  0  0  0  0  0  0
  -15.6792   -5.3233  -24.5505 C   0  0  0  0  0  0  0  0  0  0  0  0
  -14.5624   -6.0859  -24.2846 C   0  0  0  0  0  0  0  0  0  0  0  0
  -14.4317   -6.7264  -23.0671 O   0  0  0  0  0  0  0  0  0  0  0  0
  -15.5289   -6.8621  -22.2188 C   0  0  0  0  0  0  0  0  0  0  0  0
  1  2  1  0
  2  3  1  0
  3  4  2  0
  4  5  1  0
  5  6  2  0
  6  7  1  0
  7  8  1  0
  8  9  2  0
  8 10  1  0
 10 11  1  0
 11 12  2  0
 12 13  1  0
 13 14  2  0
 14 15  1  0
 15 16  2  0
  7 17  2  0
 17 18  1  0
 17 19  1  0
 19 20  2  0
 20 21  1  0
 21 22  2  0
 22 23  1  0
 23 24  1  0
 22  3  1  0
 20  5  1  0
 16 11  1  0
M  END
$$$$
