
     RDKit          3D

 37 40  0  0  0  0  0  0  0  0999 V2000
  -19.6814   21.1982  -48.6937 C   0  0  0  0  0  0  0  0  0  0  0  0
  -18.8663   21.2978  -47.5172 N   0  0  0  0  0  0  0  0  0  0  0  0
  -19.3737   22.1794  -46.5287 C   0  0  0  0  0  0  0  0  0  0  0  0
  -18.7015   22.2892  -45.2373 C   0  0  0  0  0  0  0  0  0  0  0  0
  -17.4835   21.4087  -45.1485 C   0  0  0  0  0  0  0  0  0  0  0  0
  -16.4402   21.5925  -44.3795 N   0  0  0  0  0  0  0  0  0  0  0  0
  -15.4599   20.8446  -44.3242 C   0  0  0  0  0  0  0  0  0  0  0  0
  -14.1970   20.7961  -43.5912 C   0  0  0  0  0  0  0  0  0  0  0  0
  -13.8367   21.7034  -42.8184 O   0  0  0  0  0  0  0  0  0  0  0  0
  -13.3156   19.6901  -43.7358 N   0  0  0  0  0  0  0  0  0  0  0  0
  -11.9243   19.7639  -43.3411 C   0  0  2  0  0  0  0  0  0  0  0  0
  -11.1832   20.3871  -44.5127 C   0  0  0  0  0  0  0  0  0  0  0  0
  -11.3487   19.5720  -45.7691 C   0  0  1  0  0  0  0  0  0  0  0  0
  -10.3027   19.9857  -46.7311 C   0  0  0  0  0  0  0  0  0  0  0  0
   -9.7670   21.1058  -46.6127 O   0  0  0  0  0  0  0  0  0  0  0  0
   -9.9057   19.1283  -47.7801 N   0  0  0  0  0  0  0  0  0  0  0  0
   -9.8303   19.6276  -49.1278 C   0  0  0  0  0  0  0  0  0  0  0  0
   -9.5637   17.7409  -47.5589 C   0  0  0  0  0  0  0  0  0  0  0  0
  -11.1404   18.0889  -45.4839 C   0  0  0  0  0  0  0  0  0  0  0  0
  -10.4547   18.0021  -44.1328 C   0  0  0  0  0  0  0  0  0  0  0  0
  -11.3648   18.3950  -43.0043 C   0  0  2  0  0  0  0  0  0  0  0  0
  -12.4054   17.4647  -42.7231 N   0  0  0  0  0  0  0  0  0  0  0  0
  -13.3999   17.6838  -41.7274 C   0  0  0  0  0  0  0  0  0  0  0  0
  -14.5072   18.1065  -42.1512 O   0  0  0  0  0  0  0  0  0  0  0  0
  -13.1731   17.4428  -40.3165 C   0  0  0  0  0  0  0  0  0  0  0  0
  -12.0759   17.0676  -39.8386 O   0  0  0  0  0  0  0  0  0  0  0  0
  -14.2441   17.6373  -39.4062 N   0  0  0  0  0  0  0  0  0  0  0  0
  -14.1371   17.2381  -38.0641 C   0  0  0  0  0  0  0  0  0  0  0  0
  -12.9611   16.7062  -37.5686 C   0  0  0  0  0  0  0  0  0  0  0  0
  -12.8987   16.3274  -36.2442 C   0  0  0  0  0  0  0  0  0  0  0  0
  -14.0123   16.4844  -35.4298 C   0  0  0  0  0  0  0  0  0  0  0  0
  -13.9326   16.0038  -33.7506 Cl  0  0  0  0  0  0  0  0  0  0  0  0
  -15.1711   17.0165  -35.9473 C   0  0  0  0  0  0  0  0  0  0  0  0
  -15.2031   17.3765  -37.2401 N   0  0  0  0  0  0  0  0  0  0  0  0
  -15.9592   19.5515  -45.5657 S   0  0  0  0  0  0  0  0  0  0  0  0
  -17.4783   20.3152  -45.9386 C   0  0  0  0  0  0  0  0  0  0  0  0
  -18.6340   20.0056  -46.8888 C   0  0  0  0  0  0  0  0  0  0  0  0
  1  2  1  0
  2  3  1  0
  3  4  1  0
  4  5  1  0
  5  6  1  0
  6  7  2  0
  7  8  1  0
  8  9  2  0
  8 10  1  0
 11 10  1  6
 11 12  1  0
 12 13  1  0
 13 14  1  6
 14 15  2  0
 14 16  1  0
 16 17  1  0
 16 18  1  0
 13 19  1  0
 19 20  1  0
 20 21  1  0
 21 22  1  6
 22 23  1  0
 23 24  2  0
 23 25  1  0
 25 26  2  0
 25 27  1  0
 27 28  1  0
 28 29  2  0
 29 30  1  0
 30 31  2  0
 31 32  1  0
 31 33  1  0
 33 34  2  0
  7 35  1  0
 35 36  1  0
 36 37  1  0
 37  2  1  0
 36  5  2  0
 21 11  1  0
 34 28  1  0
M  END
$$$$
