
     RDKit          3D

 28 31  0  0  0  0  0  0  0  0999 V2000
  -25.1092   -2.7252  -29.1763 C   0  0  0  0  0  0  0  0  0  0  0  0
  -24.5878   -2.1031  -30.3455 N   0  0  0  0  0  0  0  0  0  0  0  0
  -24.7175   -2.9760  -31.5410 C   0  0  0  0  0  0  0  0  0  0  0  0
  -23.8677   -2.3250  -32.5871 C   0  0  0  0  0  0  0  0  0  0  0  0
  -24.0324   -1.9235  -33.7994 C   0  0  0  0  0  0  0  0  0  0  0  0
  -23.1396   -1.2651  -34.8241 C   0  0  0  0  0  0  0  0  0  0  0  0
  -22.1324   -2.1571  -35.4572 C   0  0  0  0  0  0  0  0  0  0  0  0
  -20.8330   -1.5780  -35.5152 O   0  0  0  0  0  0  0  0  0  0  0  0
  -20.3255   -0.3960  -35.0008 C   0  0  0  0  0  0  0  0  0  0  0  0
  -19.8636    0.4605  -36.0038 C   0  0  0  0  0  0  0  0  0  0  0  0
  -19.3192    1.6972  -35.7606 C   0  0  0  0  0  0  0  0  0  0  0  0
  -19.2579    2.0448  -34.4344 C   0  0  0  0  0  0  0  0  0  0  0  0
  -19.7068    1.2239  -33.3811 C   0  0  0  0  0  0  0  0  0  0  0  0
  -20.2376    0.0005  -33.6733 C   0  0  0  0  0  0  0  0  0  0  0  0
  -19.5408    1.9237  -32.0817 C   0  0  0  0  0  0  0  0  0  0  0  0
  -18.4002    2.7084  -31.8035 C   0  0  0  0  0  0  0  0  0  0  0  0
  -18.2306    3.3748  -30.6238 C   0  0  0  0  0  0  0  0  0  0  0  0
  -19.1806    3.2863  -29.6844 N   0  0  0  0  0  0  0  0  0  0  0  0
  -20.2737    2.5650  -29.8869 C   0  0  0  0  0  0  0  0  0  0  0  0
  -20.3887    1.9339  -31.0598 N   0  0  0  0  0  0  0  0  0  0  0  0
  -21.3168    2.4062  -28.9195 N   0  0  0  0  0  0  0  0  0  0  0  0
  -22.5997    1.7700  -29.0997 C   0  0  0  0  0  0  0  0  0  0  0  0
  -23.5611    2.4804  -28.3394 C   0  0  0  0  0  0  0  0  0  0  0  0
  -24.8878    2.1471  -28.3083 C   0  0  0  0  0  0  0  0  0  0  0  0
  -25.2312    1.0681  -29.0699 C   0  0  0  0  0  0  0  0  0  0  0  0
  -24.3034    0.3259  -29.8470 C   0  0  0  0  0  0  0  0  0  0  0  0
  -22.9717    0.6804  -29.8609 C   0  0  0  0  0  0  0  0  0  0  0  0
  -25.0115   -0.7693  -30.5807 C   0  0  0  0  0  0  0  0  0  0  0  0
  1  2  1  0
  2  3  1  0
  3  4  1  0
  4  5  2  0
  5  6  1  0
  6  7  1  0
  7  8  1  0
  8  9  1  0
  9 10  1  0
 10 11  2  0
 11 12  1  0
 12 13  2  0
 13 14  1  0
 13 15  1  0
 15 16  1  0
 16 17  2  0
 17 18  1  0
 18 19  2  0
 19 20  1  0
 19 21  1  0
 21 22  1  0
 22 23  1  0
 23 24  2  0
 24 25  1  0
 25 26  2  0
 26 27  1  0
 26 28  1  0
 28  2  1  0
 14  9  2  0
 20 15  2  0
 27 22  2  0
M  END
$$$$
