
     RDKit          3D

 28 31  0  0  0  0  0  0  0  0999 V2000
  -17.4112   40.7021  -21.3617 C   0  0  0  0  0  0  0  0  0  0  0  0
  -18.4103   41.0479  -22.3654 C   0  0  0  0  0  0  0  0  0  0  0  0
  -19.0145   40.0617  -23.0710 C   0  0  0  0  0  0  0  0  0  0  0  0
  -18.7866   38.6575  -22.8320 C   0  0  0  0  0  0  0  0  0  0  0  0
  -18.2360   37.7846  -23.7315 C   0  0  0  0  0  0  0  0  0  0  0  0
  -18.0696   36.4618  -23.4281 C   0  0  0  0  0  0  0  0  0  0  0  0
  -18.4381   35.9236  -22.2148 C   0  0  0  0  0  0  0  0  0  0  0  0
  -18.2612   34.5064  -21.8863 C   0  0  0  0  0  0  0  0  0  0  0  0
  -18.8921   33.5074  -22.5976 C   0  0  0  0  0  0  0  0  0  0  0  0
  -18.7308   32.1728  -22.2951 C   0  0  0  0  0  0  0  0  0  0  0  0
  -17.9131   31.8056  -21.2470 C   0  0  0  0  0  0  0  0  0  0  0  0
  -17.2801   32.8068  -20.5332 C   0  0  0  0  0  0  0  0  0  0  0  0
  -17.4450   34.1301  -20.8394 C   0  0  0  0  0  0  0  0  0  0  0  0
  -16.8306   35.1321  -20.1489 F   0  0  0  0  0  0  0  0  0  0  0  0
  -18.9928   36.8070  -21.3091 C   0  0  0  0  0  0  0  0  0  0  0  0
  -19.1704   38.1344  -21.5880 C   0  0  0  0  0  0  0  0  0  0  0  0
  -19.8727   40.3854  -24.0406 N   0  0  0  0  0  0  0  0  0  0  0  0
  -20.1536   41.6707  -24.3324 C   0  0  0  0  0  0  0  0  0  0  0  0
  -21.0591   41.9635  -25.3570 C   0  0  0  0  0  0  0  0  0  0  0  0
  -21.3846   43.2471  -25.6988 C   0  0  0  0  0  0  0  0  0  0  0  0
  -20.7783   44.2516  -24.9857 C   0  0  0  0  0  0  0  0  0  0  0  0
  -21.0538   45.5480  -25.2703 F   0  0  0  0  0  0  0  0  0  0  0  0
  -19.8671   44.0189  -23.9533 C   0  0  0  0  0  0  0  0  0  0  0  0
  -19.5569   42.7148  -23.6294 C   0  0  0  0  0  0  0  0  0  0  0  0
  -18.6590   42.4111  -22.6144 C   0  0  0  0  0  0  0  0  0  0  0  0
  -18.0327   43.4128  -21.8059 C   0  0  0  0  0  0  0  0  0  0  0  0
  -18.6535   43.9766  -20.8407 O   0  0  0  0  0  0  0  0  0  0  0  0
  -16.7555   43.8621  -21.9649 O   0  0  0  0  0  0  0  0  0  0  0  0
  1  2  1  0
  2  3  2  0
  3  4  1  0
  4  5  2  0
  5  6  1  0
  6  7  2  0
  7  8  1  0
  8  9  2  0
  9 10  1  0
 10 11  2  0
 11 12  1  0
 12 13  2  0
 13 14  1  0
  7 15  1  0
 15 16  2  0
  3 17  1  0
 17 18  2  0
 18 19  1  0
 19 20  2  0
 20 21  1  0
 21 22  1  0
 21 23  2  0
 23 24  1  0
 24 25  2  0
 25 26  1  0
 26 27  2  0
 26 28  1  0
 25  2  1  0
 16  4  1  0
 24 18  1  0
 13  8  1  0
M  END
$$$$
