
     RDKit          3D

 31 34  0  0  0  0  0  0  0  0999 V2000
  -23.9697   14.3917  -37.0544 C   0  0  0  0  0  0  0  0  0  0  0  0
  -23.2795   15.6293  -37.4904 C   0  0  0  0  0  0  0  0  0  0  0  0
  -23.7829   16.3084  -38.5686 C   0  0  0  0  0  0  0  0  0  0  0  0
  -23.1564   17.4744  -38.9950 C   0  0  0  0  0  0  0  0  0  0  0  0
  -22.0180   17.9371  -38.3135 C   0  0  0  0  0  0  0  0  0  0  0  0
  -21.3806   19.1687  -38.7620 C   0  0  0  0  0  0  0  0  0  0  0  0
  -21.8511   19.9355  -39.7340 N   0  0  0  0  0  0  0  0  0  0  0  0
  -21.2776   21.0674  -40.1634 C   0  0  0  0  0  0  0  0  0  0  0  0
  -20.1117   21.4759  -39.5576 C   0  0  0  0  0  0  0  0  0  0  0  0
  -19.6135   20.6802  -38.5396 C   0  0  0  0  0  0  0  0  0  0  0  0
  -20.2275   19.5670  -38.1582 N   0  0  0  0  0  0  0  0  0  0  0  0
  -21.5130   17.2669  -37.2431 C   0  0  0  0  0  0  0  0  0  0  0  0
  -20.3560   17.7170  -36.5402 C   0  0  0  0  0  0  0  0  0  0  0  0
  -19.2165   17.3700  -36.9897 O   0  0  0  0  0  0  0  0  0  0  0  0
  -20.3724   18.5301  -35.3741 N   0  0  0  0  0  0  0  0  0  0  0  0
  -19.1275   18.7473  -34.6984 C   0  0  0  0  0  0  0  0  0  0  0  0
  -19.1122   19.8061  -33.6673 C   0  0  2  0  0  0  0  0  0  0  0  0
  -18.4515   19.2285  -32.3915 C   0  0  0  0  0  0  0  0  0  0  0  0
  -17.1547   19.0378  -32.4792 O   0  0  0  0  0  0  0  0  0  0  0  0
  -16.0349   18.3858  -32.5259 C   0  0  0  0  0  0  0  0  0  0  0  0
  -15.3217   18.1797  -31.3265 C   0  0  0  0  0  0  0  0  0  0  0  0
  -14.1451   17.5142  -31.2746 C   0  0  0  0  0  0  0  0  0  0  0  0
  -13.5970   17.0042  -32.4296 C   0  0  0  0  0  0  0  0  0  0  0  0
  -12.4186   16.3366  -32.3830 F   0  0  0  0  0  0  0  0  0  0  0  0
  -14.2922   17.2054  -33.5928 C   0  0  0  0  0  0  0  0  0  0  0  0
  -15.4522   17.8631  -33.6348 N   0  0  0  0  0  0  0  0  0  0  0  0
  -20.4667   20.2691  -33.2149 C   0  0  0  0  0  0  0  0  0  0  0  0
  -21.5212   19.1991  -33.4083 C   0  0  0  0  0  0  0  0  0  0  0  0
  -21.6327   19.0733  -34.9333 C   0  0  1  0  0  0  0  0  0  0  0  0
  -21.8810   20.4037  -35.5861 C   0  0  0  0  0  0  0  0  0  0  0  0
  -22.1531   16.1158  -36.8413 C   0  0  0  0  0  0  0  0  0  0  0  0
  1  2  1  0
  2  3  2  0
  3  4  1  0
  4  5  2  0
  5  6  1  0
  6  7  2  0
  7  8  1  0
  8  9  2  0
  9 10  1  0
 10 11  2  0
  5 12  1  0
 12 13  1  0
 13 14  2  0
 13 15  1  0
 15 16  1  0
 16 17  1  0
 17 18  1  1
 18 19  1  0
 19 20  1  0
 20 21  2  0
 21 22  1  0
 22 23  2  0
 23 24  1  0
 23 25  1  0
 25 26  2  0
 17 27  1  0
 27 28  1  0
 28 29  1  0
 29 30  1  6
 12 31  2  0
 31  2  1  0
 11  6  1  0
 29 15  1  0
 26 20  1  0
M  END
$$$$
