
     RDKit          3D

 23 24  0  0  0  0  0  0  0  0999 V2000
   -1.2432   16.5988  -17.3228 C   0  0  0  0  0  0  0  0  0  0  0  0
    0.2501   16.8498  -17.3559 C   0  0  0  0  0  0  0  0  0  0  0  0
    0.9557   15.5136  -17.4386 C   0  0  0  0  0  0  0  0  0  0  0  0
    0.6401   17.4942  -16.0524 C   0  0  0  0  0  0  0  0  0  0  0  0
    0.6322   17.7493  -18.4615 C   0  0  0  0  0  0  0  0  0  0  0  0
    1.3560   18.9044  -18.3148 C   0  0  0  0  0  0  0  0  0  0  0  0
    1.7098   19.7444  -19.3811 C   0  0  0  0  0  0  0  0  0  0  0  0
    2.5253   20.9571  -19.1088 C   0  0  0  0  0  0  0  0  0  0  0  0
    3.5705   20.8019  -18.0702 C   0  0  0  0  0  0  0  0  0  0  0  0
    4.9398   21.1715  -18.4201 C   0  0  0  0  0  0  0  0  0  0  0  0
    5.5692   20.5664  -19.3277 O   0  0  0  0  0  0  0  0  0  0  0  0
    5.5390   22.2418  -17.6968 N   0  0  0  0  0  0  0  0  0  0  0  0
    6.8492   22.8398  -17.6756 C   0  0  0  0  0  0  0  0  0  0  0  0
    6.5743   23.2205  -16.2145 C   0  0  0  0  0  0  0  0  0  0  0  0
    5.1175   23.1779  -16.6931 C   0  0  0  0  0  0  0  0  0  0  0  0
    1.2919   19.3583  -20.6353 C   0  0  0  0  0  0  0  0  0  0  0  0
    0.5618   18.2047  -20.8266 C   0  0  0  0  0  0  0  0  0  0  0  0
    0.1444   17.8480  -22.1968 C   0  0  0  0  0  0  0  0  0  0  0  0
   -1.3768   18.0278  -22.2395 C   0  0  0  0  0  0  0  0  0  0  0  0
    0.7277   18.7362  -23.2461 C   0  0  0  0  0  0  0  0  0  0  0  0
    0.4750   16.4106  -22.5132 C   0  0  0  0  0  0  0  0  0  0  0  0
    0.2450   17.4224  -19.7428 C   0  0  0  0  0  0  0  0  0  0  0  0
   -0.4885   16.2736  -19.9742 O   0  0  0  0  0  0  0  0  0  0  0  0
  1  2  1  0
  2  3  1  0
  2  4  1  0
  2  5  1  0
  5  6  2  0
  6  7  1  0
  7  8  1  0
  8  9  1  0
  9 10  1  0
 10 11  2  0
 10 12  1  0
 12 13  1  0
 13 14  1  0
 14 15  1  0
  7 16  2  0
 16 17  1  0
 17 18  1  0
 18 19  1  0
 18 20  1  0
 18 21  1  0
 17 22  2  0
 22 23  1  0
 22  5  1  0
 15 12  1  0
M  END
$$$$
