
     RDKit          3D

 21 23  0  0  0  0  0  0  0  0999 V2000
  -24.2257   18.9755  -30.5417 O   0  0  0  0  0  0  0  0  0  0  0  0
  -25.1645   19.6043  -29.9314 C   0  0  0  0  0  0  0  0  0  0  0  0
  -25.1456   21.0017  -30.0532 N   0  0  0  0  0  0  0  0  0  0  0  0
  -24.2108   21.7140  -30.9224 C   0  0  0  0  0  0  0  0  0  0  0  0
  -24.8503   22.7531  -31.7492 C   0  0  0  0  0  0  0  0  0  0  0  0
  -25.6004   22.5436  -32.8715 C   0  0  0  0  0  0  0  0  0  0  0  0
  -26.1639   23.5939  -33.6021 C   0  0  0  0  0  0  0  0  0  0  0  0
  -25.9749   24.8998  -33.2022 C   0  0  0  0  0  0  0  0  0  0  0  0
  -25.2221   25.1274  -32.0742 C   0  0  0  0  0  0  0  0  0  0  0  0
  -24.6727   24.0818  -31.3642 C   0  0  0  0  0  0  0  0  0  0  0  0
  -25.1952   26.5236  -31.9045 O   0  0  0  0  0  0  0  0  0  0  0  0
  -26.2745   27.0886  -32.6278 C   0  0  0  0  0  0  0  0  0  0  0  0
  -26.3892   26.1368  -33.6954 O   0  0  0  0  0  0  0  0  0  0  0  0
  -26.1058   18.7900  -29.2113 C   0  0  0  0  0  0  0  0  0  0  0  0
  -26.9426   17.8456  -29.7474 C   0  0  0  0  0  0  0  0  0  0  0  0
  -27.0235   17.5801  -31.4518 Cl  0  0  0  0  0  0  0  0  0  0  0  0
  -27.7991   17.0707  -28.9469 C   0  0  0  0  0  0  0  0  0  0  0  0
  -27.8375   17.2274  -27.5779 C   0  0  0  0  0  0  0  0  0  0  0  0
  -27.0137   18.1625  -27.0246 C   0  0  0  0  0  0  0  0  0  0  0  0
  -26.1798   18.9142  -27.8148 C   0  0  0  0  0  0  0  0  0  0  0  0
  -25.1320   20.1008  -27.0632 Cl  0  0  0  0  0  0  0  0  0  0  0  0
  1  2  2  0
  2  3  1  0
  3  4  1  0
  4  5  1  0
  5  6  2  0
  6  7  1  0
  7  8  2  0
  8  9  1  0
  9 10  2  0
  9 11  1  0
 11 12  1  0
 12 13  1  0
  2 14  1  0
 14 15  2  0
 15 16  1  0
 15 17  1  0
 17 18  2  0
 18 19  1  0
 19 20  2  0
 20 21  1  0
 10  5  1  0
 20 14  1  0
 13  8  1  0
M  END
$$$$
