
     RDKit          3D

 23 24  0  0  0  0  0  0  0  0999 V2000
  -15.0386   21.0345  -34.2270 C   0  0  0  0  0  0  0  0  0  0  0  0
  -14.9365   19.5368  -34.3090 C   0  0  0  0  0  0  0  0  0  0  0  0
  -14.6610   18.7888  -33.1685 C   0  0  0  0  0  0  0  0  0  0  0  0
  -14.5703   17.4281  -33.2526 C   0  0  0  0  0  0  0  0  0  0  0  0
  -14.2771   16.6250  -32.0332 C   0  0  0  0  0  0  0  0  0  0  0  0
  -14.7536   16.8175  -34.4698 C   0  0  0  0  0  0  0  0  0  0  0  0
  -15.0243   17.5301  -35.6003 C   0  0  0  0  0  0  0  0  0  0  0  0
  -15.2120   16.9336  -36.8367 O   0  0  0  0  0  0  0  0  0  0  0  0
  -15.0029   17.5615  -38.0363 C   0  0  0  0  0  0  0  0  0  0  0  0
  -16.0545   18.2202  -38.6303 C   0  0  0  0  0  0  0  0  0  0  0  0
  -15.8144   18.8484  -39.8459 C   0  0  0  0  0  0  0  0  0  0  0  0
  -14.5864   18.8179  -40.4330 C   0  0  0  0  0  0  0  0  0  0  0  0
  -14.3545   19.4936  -41.7120 C   0  0  0  0  0  0  0  0  0  0  0  0
  -14.6018   18.6279  -42.8370 N   0  0  0  0  0  0  0  0  0  0  0  0
  -13.8013   18.5120  -43.9949 C   0  0  0  0  0  0  0  0  0  0  0  0
  -12.7545   19.1821  -44.0669 O   0  0  0  0  0  0  0  0  0  0  0  0
  -14.1659   17.6187  -45.1288 C   0  0  2  0  0  0  0  0  0  0  0  0
  -12.9469   17.3224  -45.9825 C   0  0  0  0  0  0  0  0  0  0  0  0
  -15.1455   18.3102  -45.9400 N   0  0  0  0  0  0  0  0  0  0  0  0
  -13.5280   18.1461  -39.8189 C   0  0  0  0  0  0  0  0  0  0  0  0
  -13.7498   17.5197  -38.6162 C   0  0  0  0  0  0  0  0  0  0  0  0
  -12.6200   16.8130  -37.9490 C   0  0  0  0  0  0  0  0  0  0  0  0
  -15.1170   18.9112  -35.5171 C   0  0  0  0  0  0  0  0  0  0  0  0
  1  2  1  0
  2  3  2  0
  3  4  1  0
  4  5  1  0
  4  6  2  0
  6  7  1  0
  7  8  1  0
  8  9  1  0
  9 10  2  0
 10 11  1  0
 11 12  2  0
 12 13  1  0
 13 14  1  0
 14 15  1  0
 15 16  2  0
 15 17  1  0
 17 18  1  6
 17 19  1  0
 12 20  1  0
 20 21  2  0
 21 22  1  0
  7 23  2  0
 23  2  1  0
 21  9  1  0
M  END
$$$$
