
     RDKit          3D

 18 19  0  0  0  0  0  0  0  0999 V2000
  -19.3433   20.7791  -31.7517 N   0  0  0  0  0  0  0  0  0  0  0  0
  -18.6011   19.5701  -31.7542 C   0  0  0  0  0  0  0  0  0  0  0  0
  -17.5060   19.4652  -31.1386 O   0  0  0  0  0  0  0  0  0  0  0  0
  -19.1397   18.4557  -32.4870 N   0  0  0  0  0  0  0  0  0  0  0  0
  -18.3686   17.2241  -32.5224 C   0  0  0  0  0  0  0  0  0  0  0  0
  -16.8506   16.9702  -31.7436 S   0  0  0  0  0  0  0  0  0  0  0  0
  -16.5865   15.3001  -32.2438 C   0  0  0  0  0  0  0  0  0  0  0  0
  -15.4623   14.4553  -31.9237 C   0  0  0  0  0  0  0  0  0  0  0  0
  -14.8211   14.5525  -30.7194 C   0  0  0  0  0  0  0  0  0  0  0  0
  -13.7457   13.7390  -30.4228 C   0  0  0  0  0  0  0  0  0  0  0  0
  -13.3375   12.8301  -31.3692 C   0  0  0  0  0  0  0  0  0  0  0  0
  -13.9711   12.7195  -32.5849 C   0  0  0  0  0  0  0  0  0  0  0  0
  -15.0352   13.5399  -32.8510 C   0  0  0  0  0  0  0  0  0  0  0  0
  -17.7055   15.0520  -32.9881 C   0  0  0  0  0  0  0  0  0  0  0  0
  -18.6308   16.0135  -33.1474 C   0  0  0  0  0  0  0  0  0  0  0  0
  -19.8614   15.8011  -33.9424 C   0  0  0  0  0  0  0  0  0  0  0  0
  -20.0313   14.6782  -34.8013 N   0  0  0  0  0  0  0  0  0  0  0  0
  -20.7905   16.6148  -33.8753 O   0  0  0  0  0  0  0  0  0  0  0  0
  1  2  1  0
  2  3  2  0
  2  4  1  0
  4  5  1  0
  5  6  1  0
  6  7  1  0
  7  8  1  0
  8  9  2  0
  9 10  1  0
 10 11  2  0
 11 12  1  0
 12 13  2  0
  7 14  2  0
 14 15  1  0
 15 16  1  0
 16 17  1  0
 16 18  2  0
 15  5  2  0
 13  8  1  0
M  END
$$$$
