
     RDKit          3D

 45 50  0  0  0  0  0  0  0  0999 V2000
  -17.0405   17.2436  -33.7623 C   0  0  0  0  0  0  0  0  0  0  0  0
  -18.4037   16.7298  -34.0852 C   0  0  0  0  0  0  0  0  0  0  0  0
  -18.5016   16.0685  -35.4550 C   0  0  2  0  0  0  0  0  0  0  0  0
  -17.1506   15.4972  -35.7177 C   0  0  0  0  0  0  0  0  0  0  0  0
  -16.9200   14.3249  -35.4193 O   0  0  0  0  0  0  0  0  0  0  0  0
  -16.1200   16.2816  -36.3072 N   0  0  0  0  0  0  0  0  0  0  0  0
  -14.7172   15.9336  -36.2242 C   0  0  0  0  0  0  0  0  0  0  0  0
  -16.4943   17.4581  -37.0041 C   0  0  0  0  0  0  0  0  0  0  0  0
  -15.5253   18.2657  -37.6060 C   0  0  0  0  0  0  0  0  0  0  0  0
  -15.9457   19.3620  -38.2521 N   0  0  0  0  0  0  0  0  0  0  0  0
  -17.2614   19.7094  -38.3408 C   0  0  0  0  0  0  0  0  0  0  0  0
  -17.6297   20.9033  -39.0568 N   0  0  0  0  0  0  0  0  0  0  0  0
  -18.9438   21.4369  -38.9828 C   0  0  0  0  0  0  0  0  0  0  0  0
  -20.0672   20.6591  -39.1405 C   0  0  0  0  0  0  0  0  0  0  0  0
  -21.3290   21.2390  -39.0698 C   0  0  0  0  0  0  0  0  0  0  0  0
  -21.5114   22.5799  -38.8453 C   0  0  0  0  0  0  0  0  0  0  0  0
  -22.7885   23.2355  -38.7552 C   0  0  0  0  0  0  0  0  0  0  0  0
  -23.3114   23.7085  -39.7989 O   0  0  0  0  0  0  0  0  0  0  0  0
  -23.4626   23.3594  -37.5284 N   0  0  0  0  0  0  0  0  0  0  0  0
  -24.3767   24.4540  -37.3176 C   0  0  1  0  0  0  0  0  0  0  0  0
  -25.6025   23.8973  -36.6386 C   0  0  0  0  0  0  0  0  0  0  0  0
  -26.0738   24.9136  -35.6294 C   0  0  0  0  0  0  0  0  0  0  0  0
  -26.1005   26.2975  -36.2372 C   0  0  2  0  0  0  0  0  0  0  0  0
  -26.8146   26.2589  -37.4601 N   0  0  0  0  0  0  0  0  0  0  0  0
  -28.2631   26.2956  -37.2742 C   0  0  0  0  0  0  0  0  0  0  0  0
  -28.7537   27.7522  -37.3129 C   0  0  0  0  0  0  0  0  0  0  0  0
  -27.6645   28.5828  -36.9435 N   0  0  0  0  0  0  0  0  0  0  0  0
  -27.9415   29.7847  -36.2625 C   0  0  0  0  0  0  0  0  0  0  0  0
  -29.2241   30.4814  -36.6403 C   0  0  0  0  0  0  0  0  0  0  0  0
  -29.0239   31.5201  -37.7682 C   0  0  0  0  0  0  0  0  0  0  0  0
  -29.4402   31.9086  -36.4146 C   0  0  0  0  0  0  0  0  0  0  0  0
  -26.5909   28.6528  -37.9072 C   0  0  0  0  0  0  0  0  0  0  0  0
  -26.4694   27.2223  -38.4531 C   0  0  0  0  0  0  0  0  0  0  0  0
  -24.6884   26.7250  -36.4535 C   0  0  0  0  0  0  0  0  0  0  0  0
  -23.7253   25.5659  -36.5160 C   0  0  0  0  0  0  0  0  0  0  0  0
  -20.3560   23.3502  -38.6883 C   0  0  0  0  0  0  0  0  0  0  0  0
  -19.0957   22.7901  -38.7554 C   0  0  0  0  0  0  0  0  0  0  0  0
  -17.9884   23.6212  -38.5891 O   0  0  0  0  0  0  0  0  0  0  0  0
  -18.1604   24.8820  -37.9876 C   0  0  0  0  0  0  0  0  0  0  0  0
  -18.1619   18.9146  -37.7529 N   0  0  0  0  0  0  0  0  0  0  0  0
  -17.8398   17.7941  -37.0812 C   0  0  0  0  0  0  0  0  0  0  0  0
  -18.8752   17.0149  -36.4918 N   0  0  0  0  0  0  0  0  0  0  0  0
  -20.2334   17.1466  -36.8900 C   0  0  0  0  0  0  0  0  0  0  0  0
  -21.1073   15.9546  -36.6738 C   0  0  0  0  0  0  0  0  0  0  0  0
  -20.8641   18.2852  -36.0785 C   0  0  0  0  0  0  0  0  0  0  0  0
  1  2  1  0
  3  2  1  1
  3  4  1  0
  4  5  2  0
  4  6  1  0
  6  7  1  0
  6  8  1  0
  8  9  2  0
  9 10  1  0
 10 11  2  0
 11 12  1  0
 12 13  1  0
 13 14  2  0
 14 15  1  0
 15 16  2  0
 16 17  1  0
 17 18  2  0
 17 19  1  0
 20 19  1  1
 20 21  1  0
 21 22  1  0
 22 23  1  0
 23 24  1  6
 24 25  1  0
 25 26  1  0
 26 27  1  0
 27 28  1  0
 28 29  1  0
 29 30  1  0
 30 31  1  0
 27 32  1  0
 32 33  1  0
 23 34  1  0
 34 35  1  0
 16 36  1  0
 36 37  2  0
 37 38  1  0
 38 39  1  0
 11 40  1  0
 40 41  2  0
 41 42  1  0
 42 43  1  0
 43 44  1  0
 43 45  1  0
 42  3  1  0
 41  8  1  0
 37 13  1  0
 35 20  1  0
 33 24  1  0
 31 29  1  0
M  END
$$$$
