
     RDKit          3D

 32 35  0  0  0  0  0  0  0  0999 V2000
  -29.8602   20.9293  -26.8313 C   0  0  0  0  0  0  0  0  0  0  0  0
  -28.5924   20.6056  -27.6028 C   0  0  0  0  0  0  0  0  0  0  0  0
  -28.2865   19.1898  -27.6178 N   0  0  0  0  0  0  0  0  0  0  0  0
  -28.1894   18.6004  -28.9066 C   0  0  0  0  0  0  0  0  0  0  0  0
  -28.7284   19.1694  -29.8802 O   0  0  0  0  0  0  0  0  0  0  0  0
  -27.4871   17.3440  -29.1697 C   0  0  0  0  0  0  0  0  0  0  0  0
  -26.1630   17.2841  -28.7228 C   0  0  0  0  0  0  0  0  0  0  0  0
  -25.4647   16.1165  -28.9460 C   0  0  0  0  0  0  0  0  0  0  0  0
  -26.0464   15.0470  -29.5851 C   0  0  0  0  0  0  0  0  0  0  0  0
  -27.3486   15.1310  -30.0146 C   0  0  0  0  0  0  0  0  0  0  0  0
  -28.0832   16.2923  -29.8070 C   0  0  0  0  0  0  0  0  0  0  0  0
  -29.3967   16.4083  -30.2283 O   0  0  0  0  0  0  0  0  0  0  0  0
  -30.0194   15.2707  -30.7914 C   0  0  0  0  0  0  0  0  0  0  0  0
  -28.0578   18.3762  -26.4923 C   0  0  0  0  0  0  0  0  0  0  0  0
  -26.8842   18.5655  -25.7232 C   0  0  0  0  0  0  0  0  0  0  0  0
  -26.6276   17.7874  -24.6389 C   0  0  0  0  0  0  0  0  0  0  0  0
  -27.5034   16.7971  -24.2638 C   0  0  0  0  0  0  0  0  0  0  0  0
  -28.6434   16.6028  -24.9992 C   0  0  0  0  0  0  0  0  0  0  0  0
  -28.9212   17.3987  -26.1210 C   0  0  0  0  0  0  0  0  0  0  0  0
  -30.1352   17.0813  -26.7715 N   0  0  0  0  0  0  0  0  0  0  0  0
  -30.2281   16.0442  -27.7880 C   0  0  0  0  0  0  0  0  0  0  0  0
  -30.9496   16.5616  -29.0441 C   0  0  0  0  0  0  0  0  0  0  0  0
  -32.2407   16.9966  -28.6421 N   0  0  0  0  0  0  0  0  0  0  0  0
  -32.0754   18.1642  -27.8036 C   0  0  0  0  0  0  0  0  0  0  0  0
  -31.3711   17.8059  -26.5007 C   0  0  1  0  0  0  0  0  0  0  0  0
  -32.3756   17.0060  -25.7110 C   0  0  0  0  0  0  0  0  0  0  0  0
  -27.0280   16.1717  -23.1675 N   0  0  0  0  0  0  0  0  0  0  0  0
  -27.6724   15.0704  -22.4754 C   0  0  0  0  0  0  0  0  0  0  0  0
  -25.8643   16.7668  -22.8604 C   0  0  0  0  0  0  0  0  0  0  0  0
  -25.1497   16.4284  -21.8850 O   0  0  0  0  0  0  0  0  0  0  0  0
  -25.6045   17.7511  -23.7434 N   0  0  0  0  0  0  0  0  0  0  0  0
  -24.4519   18.6217  -23.7535 C   0  0  0  0  0  0  0  0  0  0  0  0
  1  2  1  0
  2  3  1  0
  3  4  1  0
  4  5  2  0
  4  6  1  0
  6  7  2  0
  7  8  1  0
  8  9  2  0
  9 10  1  0
 10 11  2  0
 11 12  1  0
 12 13  1  0
  3 14  1  0
 14 15  2  0
 15 16  1  0
 16 17  2  0
 17 18  1  0
 18 19  2  0
 19 20  1  0
 20 21  1  0
 21 22  1  0
 22 23  1  0
 23 24  1  0
 24 25  1  0
 25 26  1  1
 17 27  1  0
 27 28  1  0
 27 29  1  0
 29 30  2  0
 29 31  1  0
 31 32  1  0
 11  6  1  0
 19 14  1  0
 25 20  1  0
 31 16  1  0
M  END
$$$$
