
     RDKit          3D

 14 15  0  0  0  0  0  0  0  0999 V2000
  -21.6300   34.9879  -22.1627 N   0  0  0  0  0  0  0  0  0  0  0  0
  -20.1399   34.2235  -22.1315 S   0  0  0  0  0  6  0  0  0  0  0  0
  -20.2202   32.7327  -22.4348 O   0  0  0  0  0  0  0  0  0  0  0  0
  -19.5363   34.4124  -20.7459 O   0  0  0  0  0  0  0  0  0  0  0  0
  -19.0101   34.9190  -23.2742 C   0  0  0  0  0  0  0  0  0  0  0  0
  -18.1193   35.9530  -22.7047 C   0  0  0  0  0  0  0  0  0  0  0  0
  -16.9734   35.7805  -22.0061 N   0  0  0  0  0  0  0  0  0  0  0  0
  -16.4643   36.9266  -21.6871 O   0  0  0  0  0  0  0  0  0  0  0  0
  -17.2238   37.8957  -22.1437 C   0  0  0  0  0  0  0  0  0  0  0  0
  -17.1288   39.2606  -22.0752 C   0  0  0  0  0  0  0  0  0  0  0  0
  -18.0864   40.0532  -22.6529 C   0  0  0  0  0  0  0  0  0  0  0  0
  -19.1554   39.4724  -23.3092 C   0  0  0  0  0  0  0  0  0  0  0  0
  -19.2470   38.1099  -23.3756 C   0  0  0  0  0  0  0  0  0  0  0  0
  -18.2883   37.3197  -22.7977 C   0  0  0  0  0  0  0  0  0  0  0  0
  1  2  1  0
  2  3  2  0
  2  4  2  0
  2  5  1  0
  5  6  1  0
  6  7  2  0
  7  8  1  0
  8  9  1  0
  9 10  2  0
 10 11  1  0
 11 12  2  0
 12 13  1  0
 13 14  2  0
 14  6  1  0
 14  9  1  0
M  END
$$$$
