
     RDKit          3D

 28 30  0  0  0  0  0  0  0  0999 V2000
  -17.2276   37.2686  -21.3576 C   0  0  0  0  0  0  0  0  0  0  0  0
  -18.4914   37.5997  -22.1132 C   0  0  0  0  0  0  0  0  0  0  0  0
  -19.4181   36.4143  -22.2588 C   0  0  0  0  0  0  0  0  0  0  0  0
  -19.2118   38.7081  -21.4380 C   0  0  0  0  0  0  0  0  0  0  0  0
  -18.3065   39.8634  -21.2900 C   0  0  0  0  0  0  0  0  0  0  0  0
  -17.7852   40.4048  -20.1736 N   0  0  0  0  0  0  0  0  0  0  0  0
  -17.0024   41.4568  -20.4871 C   0  0  0  0  0  0  0  0  0  0  0  0
  -16.2532   42.3209  -19.5998 C   0  0  0  0  0  0  0  0  0  0  0  0
  -15.8366   43.5697  -20.0077 C   0  0  0  0  0  0  0  0  0  0  0  0
  -15.1236   44.3775  -19.1462 C   0  0  0  0  0  0  0  0  0  0  0  0
  -14.8206   43.9492  -17.8752 C   0  0  0  0  0  0  0  0  0  0  0  0
  -14.1028   44.7936  -17.0444 O   0  0  0  0  0  0  0  0  0  0  0  0
  -15.2513   42.6924  -17.4938 C   0  0  0  0  0  0  0  0  0  0  0  0
  -15.9430   41.9298  -18.3541 N   0  0  0  0  0  0  0  0  0  0  0  0
  -17.0655   41.5372  -21.8349 N   0  0  0  0  0  0  0  0  0  0  0  0
  -17.8382   40.5885  -22.2723 O   0  0  0  0  0  0  0  0  0  0  0  0
  -18.0563   38.0047  -23.5131 C   0  0  0  0  0  0  0  0  0  0  0  0
  -16.9125   38.2805  -23.7481 O   0  0  0  0  0  0  0  0  0  0  0  0
  -19.0568   38.0339  -24.4883 N   0  0  0  0  0  0  0  0  0  0  0  0
  -19.4886   38.7635  -25.5346 C   0  0  0  0  0  0  0  0  0  0  0  0
  -20.1224   38.5010  -26.6217 C   0  0  0  0  0  0  0  0  0  0  0  0
  -20.6211   37.2717  -27.1329 C   0  0  0  0  0  0  0  0  0  0  0  0
  -21.7985   36.9175  -26.6766 O   0  0  0  0  0  0  0  0  0  0  0  0
  -20.1351   36.3853  -27.9951 O   0  0  0  0  0  0  0  0  0  0  0  0
  -20.3744   39.7328  -27.5056 C   0  0  0  0  0  0  0  0  0  0  0  0
  -21.0435   40.8301  -26.7531 C   0  0  0  0  0  0  0  0  0  0  0  0
  -20.4417   40.9822  -25.3610 C   0  0  0  0  0  0  0  0  0  0  0  0
  -19.1315   40.2825  -25.3966 C   0  0  0  0  0  0  0  0  0  0  0  0
  1  2  1  0
  2  3  1  0
  2  4  1  0
  4  5  1  0
  5  6  2  0
  6  7  1  0
  7  8  1  0
  8  9  2  0
  9 10  1  0
 10 11  2  0
 11 12  1  0
 11 13  1  0
 13 14  2  0
  7 15  2  0
 15 16  1  0
  2 17  1  0
 17 18  2  0
 17 19  1  0
 19 20  1  0
 20 21  2  0
 21 22  1  0
 22 23  2  0
 22 24  1  0
 21 25  1  0
 25 26  1  0
 26 27  1  0
 27 28  1  0
 16  5  1  0
 28 20  1  0
 14  8  1  0
M  END
$$$$
