
     RDKit          3D

 28 30  0  0  0  0  0  0  0  0999 V2000
  -16.8477   40.9479  -22.9467 O   0  0  0  0  0  0  0  0  0  0  0  0
  -18.0502   41.3674  -22.8287 C   0  0  0  0  0  0  0  0  0  0  0  0
  -18.9728   40.4118  -22.3500 N   0  0  0  0  0  0  0  0  0  0  0  0
  -18.5805   39.1267  -21.8493 C   0  0  0  0  0  0  0  0  0  0  0  0
  -18.6724   38.5631  -20.6165 C   0  0  0  0  0  0  0  0  0  0  0  0
  -18.1160   37.3064  -20.7454 C   0  0  0  0  0  0  0  0  0  0  0  0
  -17.6921   37.1105  -22.0394 N   0  0  0  0  0  0  0  0  0  0  0  0
  -17.0743   35.8822  -22.4751 C   0  0  0  0  0  0  0  0  0  0  0  0
  -17.9562   34.7154  -22.5620 C   0  0  0  0  0  0  0  0  0  0  0  0
  -19.2952   34.8799  -22.9691 C   0  0  0  0  0  0  0  0  0  0  0  0
  -20.1833   33.8495  -23.0292 C   0  0  0  0  0  0  0  0  0  0  0  0
  -19.7709   32.5773  -22.6781 C   0  0  0  0  0  0  0  0  0  0  0  0
  -20.6574   31.4976  -22.7270 O   0  0  0  0  0  0  0  0  0  0  0  0
  -18.4671   32.4122  -22.2815 C   0  0  0  0  0  0  0  0  0  0  0  0
  -17.5389   33.4645  -22.2158 C   0  0  0  0  0  0  0  0  0  0  0  0
  -16.1491   33.1320  -21.8117 C   0  0  0  0  0  0  0  0  0  0  0  0
  -15.8414   33.8533  -20.6305 F   0  0  0  0  0  0  0  0  0  0  0  0
  -16.0316   31.7988  -21.4489 F   0  0  0  0  0  0  0  0  0  0  0  0
  -15.1808   33.5369  -22.6947 F   0  0  0  0  0  0  0  0  0  0  0  0
  -17.9850   38.2065  -22.6561 N   0  0  0  0  0  0  0  0  0  0  0  0
  -18.3297   42.7433  -23.1887 C   0  0  0  0  0  0  0  0  0  0  0  0
  -18.1608   43.8190  -22.3549 C   0  0  0  0  0  0  0  0  0  0  0  0
  -17.7199   43.6412  -21.0878 F   0  0  0  0  0  0  0  0  0  0  0  0
  -18.4446   45.1235  -22.7908 C   0  0  0  0  0  0  0  0  0  0  0  0
  -18.8983   45.3633  -24.0581 C   0  0  0  0  0  0  0  0  0  0  0  0
  -19.0681   44.2824  -24.8943 C   0  0  0  0  0  0  0  0  0  0  0  0
  -18.7954   42.9979  -24.4865 C   0  0  0  0  0  0  0  0  0  0  0  0
  -18.9687   41.9439  -25.3211 F   0  0  0  0  0  0  0  0  0  0  0  0
  1  2  2  0
  2  3  1  0
  3  4  1  0
  4  5  1  0
  5  6  2  0
  6  7  1  0
  7  8  1  0
  8  9  1  0
  9 10  2  0
 10 11  1  0
 11 12  2  0
 12 13  1  0
 12 14  1  0
 14 15  2  0
 15 16  1  0
 16 17  1  0
 16 18  1  0
 16 19  1  0
  7 20  1  0
  2 21  1  0
 21 22  2  0
 22 23  1  0
 22 24  1  0
 24 25  2  0
 25 26  1  0
 26 27  2  0
 27 28  1  0
 20  4  2  0
 27 21  1  0
 15  9  1  0
M  END
$$$$
