
     RDKit          3D

 25 28  0  0  0  0  0  0  0  0999 V2000
  -17.3188   37.8955  -20.0821 N   0  0  0  0  0  0  0  0  0  0  0  0
  -17.5180   38.9427  -20.5234 C   0  0  0  0  0  0  0  0  0  0  0  0
  -17.7724   40.2490  -21.1010 C   0  0  0  0  0  0  0  0  0  0  0  0
  -18.8350   40.4132  -21.9606 C   0  0  0  0  0  0  0  0  0  0  0  0
  -19.1005   41.6564  -22.5216 C   0  0  0  0  0  0  0  0  0  0  0  0
  -18.3064   42.7582  -22.2320 C   0  0  0  0  0  0  0  0  0  0  0  0
  -18.3267   44.0545  -22.6187 N   0  0  0  0  0  0  0  0  0  0  0  0
  -17.3421   44.7427  -22.0630 C   0  0  0  0  0  0  0  0  0  0  0  0
  -16.9974   46.0853  -22.1838 O   0  0  0  0  0  0  0  0  0  0  0  0
  -16.6398   43.8392  -21.2674 C   0  0  0  0  0  0  0  0  0  0  0  0
  -15.4710   44.0660  -20.4370 C   0  0  0  0  0  0  0  0  0  0  0  0
  -14.7064   43.0335  -19.9353 C   0  0  0  0  0  0  0  0  0  0  0  0
  -13.5844   43.2969  -19.1388 C   0  0  0  0  0  0  0  0  0  0  0  0
  -13.2304   44.5978  -18.8460 C   0  0  0  0  0  0  0  0  0  0  0  0
  -12.0542   44.8430  -18.0135 C   0  0  0  0  0  0  0  0  0  0  0  0
  -12.3672   45.0898  -16.6192 N   0  0  0  0  0  0  0  0  0  0  0  0
  -12.0090   46.4130  -16.2069 C   0  0  0  0  0  0  0  0  0  0  0  0
  -12.0170   46.6547  -14.7386 C   0  0  0  0  0  0  0  0  0  0  0  0
  -11.5086   45.6444  -13.9616 O   0  0  0  0  0  0  0  0  0  0  0  0
  -12.0105   44.3884  -14.3111 C   0  0  0  0  0  0  0  0  0  0  0  0
  -11.6552   44.1461  -15.7564 C   0  0  0  0  0  0  0  0  0  0  0  0
  -14.0270   45.5987  -19.3711 C   0  0  0  0  0  0  0  0  0  0  0  0
  -15.1115   45.3178  -20.1421 N   0  0  0  0  0  0  0  0  0  0  0  0
  -17.2418   42.5901  -21.3698 C   0  0  0  0  0  0  0  0  0  0  0  0
  -16.9872   41.3414  -20.8156 C   0  0  0  0  0  0  0  0  0  0  0  0
  1  2  3  0
  2  3  1  0
  3  4  2  0
  4  5  1  0
  5  6  2  0
  6  7  1  0
  7  8  1  0
  8  9  1  0
  8 10  2  0
 10 11  1  0
 11 12  2  0
 12 13  1  0
 13 14  2  0
 14 15  1  0
 15 16  1  0
 16 17  1  0
 17 18  1  0
 18 19  1  0
 19 20  1  0
 20 21  1  0
 14 22  1  0
 22 23  2  0
 10 24  1  0
 24 25  2  0
 25  3  1  0
 24  6  1  0
 23 11  1  0
 21 16  1  0
M  END
$$$$
