
     RDKit          3D

  8  4  0  0  0  0  0  0  0  0999 V2000
  -18.8527   34.5484  -21.0823 O   0  0  0  0  0  0  0  0  0  0  0  0
  -17.9438   35.7264  -22.0302 V   0  0  0  0  0  5  0  0  0  0  0  0
  -18.5157   35.5517  -23.9120 O   0  0  0  0  0  1  0  0  0  0  0  0
  -18.2701   37.5496  -21.4014 O   0  0  0  0  0  1  0  0  0  0  0  0
  -16.0238   35.3523  -21.9129 O   0  0  0  0  0  1  0  0  0  0  0  0
  -17.9212   35.7457  -22.0677 Na  0  0  0  0  0 15  0  0  0  0  0  0
  -17.9212   35.7457  -22.0677 Na  0  0  0  0  0 15  0  0  0  0  0  0
  -17.9212   35.7457  -22.0677 Na  0  0  0  0  0 15  0  0  0  0  0  0
  1  2  2  0
  2  3  1  0
  2  4  1  0
  2  5  1  0
M  CHG  6   3  -1   4  -1   5  -1   6   1   7   1   8   1
M  RAD  1   2   2
M  END
$$$$
