
     RDKit          3D

 29 31  0  0  0  0  0  0  0  0999 V2000
  -12.6018    3.1372  -30.2922 C   0  0  0  0  0  0  0  0  0  0  0  0
  -12.3744    2.2041  -31.3539 N   0  0  0  0  0  0  0  0  0  0  0  0
  -11.0294    2.0474  -31.8770 C   0  0  0  0  0  0  0  0  0  0  0  0
  -13.4722    1.4591  -31.8651 C   0  0  0  0  0  0  0  0  0  0  0  0
  -13.2648    0.3342  -32.6519 C   0  0  0  0  0  0  0  0  0  0  0  0
  -14.3127   -0.4096  -33.1665 C   0  0  0  0  0  0  0  0  0  0  0  0
  -15.6237   -0.0582  -32.9151 C   0  0  0  0  0  0  0  0  0  0  0  0
  -16.7830   -0.8380  -33.4612 C   0  0  0  0  0  0  0  0  0  0  0  0
  -16.7717   -2.1006  -32.8503 O   0  0  0  0  0  0  0  0  0  0  0  0
  -18.0166   -0.1709  -33.0252 C   0  0  0  0  0  0  0  0  0  0  0  0
  -18.2056    1.1497  -33.3296 C   0  0  0  0  0  0  0  0  0  0  0  0
  -19.3596    1.7725  -32.9418 C   0  0  0  0  0  0  0  0  0  0  0  0
  -20.3305    1.0910  -32.2510 C   0  0  0  0  0  0  0  0  0  0  0  0
  -21.5371    1.7426  -31.8554 N   0  0  0  0  0  0  0  0  0  0  0  0
  -21.9063    3.0147  -32.4267 C   0  0  0  0  0  0  0  0  0  0  0  0
  -22.3979    1.1180  -30.8712 C   0  0  0  0  0  0  0  0  0  0  0  0
  -20.1372   -0.2385  -31.9455 C   0  0  0  0  0  0  0  0  0  0  0  0
  -18.9709   -0.8658  -32.3386 C   0  0  0  0  0  0  0  0  0  0  0  0
  -16.6029   -0.9375  -34.9125 C   0  0  0  0  0  0  0  0  0  0  0  0
  -16.4779    0.2031  -35.6703 C   0  0  0  0  0  0  0  0  0  0  0  0
  -16.2903    0.1951  -37.0320 C   0  0  0  0  0  0  0  0  0  0  0  0
  -16.2237   -1.0289  -37.6721 C   0  0  0  0  0  0  0  0  0  0  0  0
  -16.0292   -1.0439  -39.0795 N   0  0  0  0  0  0  0  0  0  0  0  0
  -16.6934   -0.0370  -39.8684 C   0  0  0  0  0  0  0  0  0  0  0  0
  -15.1908   -2.0420  -39.6755 C   0  0  0  0  0  0  0  0  0  0  0  0
  -16.3446   -2.1966  -36.9452 C   0  0  0  0  0  0  0  0  0  0  0  0
  -16.5302   -2.1379  -35.5933 C   0  0  0  0  0  0  0  0  0  0  0  0
  -15.8396    1.0537  -32.1368 C   0  0  0  0  0  0  0  0  0  0  0  0
  -14.7863    1.7998  -31.6205 C   0  0  0  0  0  0  0  0  0  0  0  0
  1  2  1  0
  2  3  1  0
  2  4  1  0
  4  5  2  0
  5  6  1  0
  6  7  2  0
  7  8  1  0
  8  9  1  0
  8 10  1  0
 10 11  2  0
 11 12  1  0
 12 13  2  0
 13 14  1  0
 14 15  1  0
 14 16  1  0
 13 17  1  0
 17 18  2  0
  8 19  1  0
 19 20  2  0
 20 21  1  0
 21 22  2  0
 22 23  1  0
 23 24  1  0
 23 25  1  0
 22 26  1  0
 26 27  2  0
  7 28  1  0
 28 29  2  0
 29  4  1  0
 18 10  1  0
 27 19  1  0
M  END
$$$$
