
     RDKit          3D

 24 26  0  0  0  0  0  0  0  0999 V2000
  -19.1098   41.2786  -24.5132 N   0  0  0  0  0  0  0  0  0  0  0  0
  -18.7282   40.6316  -23.3222 C   0  0  0  0  0  0  0  0  0  0  0  0
  -18.7058   39.3120  -23.1791 N   0  0  0  0  0  0  0  0  0  0  0  0
  -18.3418   38.6908  -22.0426 C   0  0  0  0  0  0  0  0  0  0  0  0
  -17.9669   39.4871  -20.9548 C   0  0  0  0  0  0  0  0  0  0  0  0
  -17.6542   38.6437  -19.9609 N   0  0  0  0  0  0  0  0  0  0  0  0
  -17.8244   37.3819  -20.4032 C   0  0  0  0  0  0  0  0  0  0  0  0
  -18.2454   37.4003  -21.6775 N   0  0  0  0  0  0  0  0  0  0  0  0
  -18.5409   36.2520  -22.5052 C   0  0  2  0  0  0  0  0  0  0  0  0
  -19.7873   35.7465  -22.1177 O   0  0  0  0  0  0  0  0  0  0  0  0
  -19.8067   34.4186  -22.4946 C   0  0  2  0  0  0  0  0  0  0  0  0
  -20.7600   33.5895  -21.6679 C   0  0  0  0  0  0  0  0  0  0  0  0
  -20.5766   32.2533  -21.9322 O   0  0  0  0  0  0  0  0  0  0  0  0
  -19.5010   31.9778  -23.2034 P   0  0  0  0  0  5  0  0  0  0  0  0
  -19.0699   30.5222  -23.1361 O   0  0  0  0  0  0  0  0  0  0  0  0
  -20.2528   32.2201  -24.6853 O   0  0  0  0  0  1  0  0  0  0  0  0
  -18.1011   32.9252  -23.0461 O   0  0  0  0  0  0  0  0  0  0  0  0
  -18.3966   33.9286  -22.1540 C   0  0  1  0  0  0  0  0  0  0  0  0
  -17.5465   35.1541  -22.3077 C   0  0  1  0  0  0  0  0  0  0  0  0
  -16.6248   35.0544  -23.3406 O   0  0  0  0  0  0  0  0  0  0  0  0
  -17.9888   40.8681  -21.1000 C   0  0  0  0  0  0  0  0  0  0  0  0
  -17.6453   41.5435  -20.0999 O   0  0  0  0  0  0  0  0  0  0  0  0
  -18.3654   41.3969  -22.2690 N   0  0  0  0  0  0  0  0  0  0  0  0
  -18.7220   36.6452  -22.3389 Na  0  0  0  0  0 15  0  0  0  0  0  0
  1  2  1  0
  2  3  2  0
  3  4  1  0
  4  5  2  0
  5  6  1  0
  6  7  2  0
  7  8  1  0
  9  8  1  1
  9 10  1  0
 10 11  1  0
 11 12  1  1
 12 13  1  0
 13 14  1  0
 14 15  2  0
 14 16  1  0
 14 17  1  0
 18 17  1  6
 18 19  1  0
 19 20  1  6
  5 21  1  0
 21 22  2  0
 21 23  1  0
 23  2  1  0
  8  4  1  0
 19  9  1  0
 18 11  1  0
M  CHG  2  16  -1  24   1
M  END
$$$$
