
     RDKit          3D

 33 37  0  0  0  0  0  0  0  0999 V2000
  -24.4327   20.9913  -39.4287 C   0  0  0  0  0  0  0  0  0  0  0  0
  -23.2623   20.1519  -39.3317 N   0  0  0  0  0  0  0  0  0  0  0  0
  -22.1835   20.7448  -38.6117 C   0  0  0  0  0  0  0  0  0  0  0  0
  -21.7084   19.7909  -37.5128 C   0  0  0  0  0  0  0  0  0  0  0  0
  -21.3190   18.5809  -38.1731 N   0  0  0  0  0  0  0  0  0  0  0  0
  -20.0305   18.0182  -38.1648 C   0  0  0  0  0  0  0  0  0  0  0  0
  -19.7531   16.8090  -38.7797 C   0  0  0  0  0  0  0  0  0  0  0  0
  -18.4716   16.2998  -38.7440 C   0  0  0  0  0  0  0  0  0  0  0  0
  -17.4630   17.0027  -38.0906 C   0  0  0  0  0  0  0  0  0  0  0  0
  -17.7221   18.2024  -37.4763 C   0  0  0  0  0  0  0  0  0  0  0  0
  -16.7054   18.9040  -36.8192 N   0  0  0  0  0  0  0  0  0  0  0  0
  -16.3176   18.6063  -35.4664 C   0  0  0  0  0  0  0  0  0  0  0  0
  -17.0865   18.7921  -34.3778 N   0  0  0  0  0  0  0  0  0  0  0  0
  -16.3903   18.4039  -33.2731 C   0  0  0  0  0  0  0  0  0  0  0  0
  -16.7323   18.3966  -31.9232 C   0  0  0  0  0  0  0  0  0  0  0  0
  -18.0686   18.8778  -31.5822 C   0  0  0  0  0  0  0  0  0  0  0  0
  -19.1407   18.2438  -32.1703 C   0  0  0  0  0  0  0  0  0  0  0  0
  -20.4311   18.6420  -31.9016 C   0  0  0  0  0  0  0  0  0  0  0  0
  -20.6236   19.6920  -31.0286 C   0  0  0  0  0  0  0  0  0  0  0  0
  -22.2581   20.2110  -30.6783 S   0  0  0  0  0  6  0  0  0  0  0  0
  -23.2721   20.2329  -32.1201 C   0  0  0  0  0  0  0  0  0  0  0  0
  -22.1705   21.6236  -30.1291 O   0  0  0  0  0  0  0  0  0  0  0  0
  -22.8150   19.2912  -29.6420 O   0  0  0  0  0  0  0  0  0  0  0  0
  -19.5487   20.3479  -30.4217 C   0  0  0  0  0  0  0  0  0  0  0  0
  -18.2845   19.9223  -30.7147 C   0  0  0  0  0  0  0  0  0  0  0  0
  -15.8454   17.9522  -30.9780 C   0  0  0  0  0  0  0  0  0  0  0  0
  -14.6063   17.5131  -31.4038 C   0  0  0  0  0  0  0  0  0  0  0  0
  -14.3289   17.5452  -32.7523 C   0  0  0  0  0  0  0  0  0  0  0  0
  -15.1859   17.9778  -33.6941 N   0  0  0  0  0  0  0  0  0  0  0  0
  -15.1586   18.1057  -35.0118 N   0  0  0  0  0  0  0  0  0  0  0  0
  -18.9965   18.7003  -37.5168 C   0  0  0  0  0  0  0  0  0  0  0  0
  -22.3970   17.9026  -38.9169 C   0  0  0  0  0  0  0  0  0  0  0  0
  -23.5972   18.8124  -38.9654 C   0  0  0  0  0  0  0  0  0  0  0  0
  1  2  1  0
  2  3  1  0
  3  4  1  0
  4  5  1  0
  5  6  1  0
  6  7  2  0
  7  8  1  0
  8  9  2  0
  9 10  1  0
 10 11  1  0
 11 12  1  0
 12 13  1  0
 13 14  2  0
 14 15  1  0
 15 16  1  0
 16 17  2  0
 17 18  1  0
 18 19  2  0
 19 20  1  0
 20 21  1  0
 20 22  2  0
 20 23  2  0
 19 24  1  0
 24 25  2  0
 15 26  2  0
 26 27  1  0
 27 28  2  0
 28 29  1  0
 29 30  1  0
 10 31  2  0
  5 32  1  0
 32 33  1  0
 33  2  1  0
 31  6  1  0
 30 12  2  0
 29 14  1  0
 25 16  1  0
M  END
$$$$
