
     RDKit          3D

 17 18  0  0  0  0  0  0  0  0999 V2000
  -17.3272   35.4873  -20.9508 N   0  0  0  0  0  0  0  0  0  0  0  0
  -17.5735   36.5939  -21.2591 C   0  0  0  0  0  0  0  0  0  0  0  0
  -17.8503   37.9519  -21.6329 C   0  0  0  0  0  0  0  0  0  0  0  0
  -18.1366   38.9114  -20.6571 C   0  0  0  0  0  0  0  0  0  0  0  0
  -18.4047   40.2187  -21.0065 C   0  0  0  0  0  0  0  0  0  0  0  0
  -18.6828   41.1609  -20.0610 N   0  0  0  0  0  0  0  0  0  0  0  0
  -18.9463   42.4435  -20.3863 C   0  0  0  0  0  0  0  0  0  0  0  0
  -19.2056   43.3218  -19.5119 O   0  0  0  0  0  0  0  0  0  0  0  0
  -18.9243   42.7756  -21.7248 C   0  0  0  0  0  0  0  0  0  0  0  0
  -19.1738   43.9864  -22.0168 O   0  0  0  0  0  0  0  0  0  0  0  0
  -18.6490   41.8451  -22.6615 N   0  0  0  0  0  0  0  0  0  0  0  0
  -18.3855   40.5637  -22.3427 C   0  0  0  0  0  0  0  0  0  0  0  0
  -18.1027   39.6102  -23.2948 C   0  0  0  0  0  0  0  0  0  0  0  0
  -17.8308   38.2979  -22.9798 C   0  0  0  0  0  0  0  0  0  0  0  0
  -17.5387   37.3114  -23.9617 N   0  0  0  0  0  4  0  0  0  0  0  0
  -18.1302   36.2188  -24.0320 O   0  0  0  0  0  0  0  0  0  0  0  0
  -16.5572   37.5345  -24.9046 O   0  0  0  0  0  1  0  0  0  0  0  0
  1  2  3  0
  2  3  1  0
  3  4  2  0
  4  5  1  0
  5  6  1  0
  6  7  1  0
  7  8  2  0
  7  9  1  0
  9 10  2  0
  9 11  1  0
 11 12  1  0
 12 13  1  0
 13 14  2  0
 14 15  1  0
 15 16  2  0
 15 17  1  0
 14  3  1  0
 12  5  2  0
M  CHG  2  15   1  17  -1
M  END
$$$$
