
     RDKit          3D

 19 19  0  0  0  0  0  0  0  0999 V2000
  -29.1231   17.7095  -26.9697 Cl  0  0  0  0  0  0  0  0  0  0  0  0
  -29.1267   17.7053  -26.9671 Cl  0  0  0  0  0  0  0  0  0  0  0  0
  -25.9786   20.5470  -27.0709 N   0  0  0  0  0  0  0  0  0  0  0  0
  -27.0085   19.6456  -27.5124 C   0  0  1  0  0  0  0  0  0  0  0  0
  -27.9467   19.3851  -26.3449 C   0  0  0  0  0  0  0  0  0  0  0  0
  -29.3865   19.4638  -26.8020 C   0  0  0  0  0  0  0  0  0  0  0  0
  -29.5610   18.5491  -27.9912 C   0  0  2  0  0  0  0  0  0  0  0  0
  -28.9789   17.2820  -27.7212 N   0  0  0  0  0  0  0  0  0  0  0  0
  -29.5194   16.5385  -26.6345 C   0  0  2  0  0  0  0  0  0  0  0  0
  -28.8244   15.1878  -26.4285 C   0  0  0  0  0  0  0  0  0  0  0  0
  -30.2268   15.2499  -26.8682 C   0  0  1  0  0  0  0  0  0  0  0  0
  -31.2730   14.8059  -25.9118 C   0  0  0  0  0  0  0  0  0  0  0  0
  -32.4264   14.1523  -26.2941 C   0  0  0  0  0  0  0  0  0  0  0  0
  -33.3798   13.7541  -25.3667 C   0  0  0  0  0  0  0  0  0  0  0  0
  -33.2164   13.9944  -24.0195 C   0  0  0  0  0  0  0  0  0  0  0  0
  -32.0660   14.6471  -23.6316 C   0  0  0  0  0  0  0  0  0  0  0  0
  -31.1149   15.0437  -24.5622 C   0  0  0  0  0  0  0  0  0  0  0  0
  -28.7762   19.1632  -29.1578 C   0  0  0  0  0  0  0  0  0  0  0  0
  -27.8034   20.2023  -28.6593 C   0  0  0  0  0  0  0  0  0  0  0  0
  4  3  1  1
  4  5  1  0
  5  6  1  0
  6  7  1  0
  7  8  1  1
  9  8  1  6
  9 10  1  0
 10 11  1  0
 11 12  1  1
 12 13  2  0
 13 14  1  0
 14 15  2  0
 15 16  1  0
 16 17  2  0
  7 18  1  0
 18 19  1  0
 19  4  1  0
 11  9  1  0
 17 12  1  0
M  END
$$$$
