
     RDKit          3D

  7  7  0  0  0  0  0  0  0  0999 V2000
  -17.7593   34.7737  -23.6442 N   0  0  0  0  0  0  0  0  0  0  0  0
  -18.0879   35.8395  -22.7689 C   0  0  2  0  0  0  0  0  0  0  0  0
  -16.9016   36.2896  -21.9073 C   0  0  0  0  0  0  0  0  0  0  0  0
  -17.5594   37.0309  -20.9308 O   0  0  0  0  0  0  0  0  0  0  0  0
  -18.6873   36.3682  -20.6190 N   0  0  0  0  0  0  0  0  0  0  0  0
  -19.0267   35.4579  -21.6785 C   0  0  0  0  0  0  0  0  0  0  0  0
  -19.9063   34.5863  -21.6249 O   0  0  0  0  0  0  0  0  0  0  0  0
  2  1  1  6
  2  3  1  0
  3  4  1  0
  4  5  1  0
  5  6  1  0
  6  7  2  0
  6  2  1  0
M  END
$$$$
