
     RDKit          3D

 23 22  0  0  0  0  0  0  0  0999 V2000
  -14.7757   -1.1643  -33.5196 Cl  0  0  0  0  0  0  0  0  0  0  0  0
  -14.7766   -1.1643  -33.5199 Cl  0  0  0  0  0  0  0  0  0  0  0  0
  -15.9293   -1.2821  -31.0322 N   0  0  0  0  0  0  0  0  0  0  0  0
  -14.9466   -0.7546  -31.9409 C   0  0  1  0  0  0  0  0  0  0  0  0
  -13.9778   -1.8864  -32.2218 C   0  0  0  0  0  0  0  0  0  0  0  0
  -12.8632   -1.5105  -33.1665 C   0  0  0  0  0  0  0  0  0  0  0  0
  -12.0367   -2.6983  -33.3077 N   0  0  0  0  0  0  0  0  0  0  0  0
  -10.9175   -2.5044  -34.1805 C   0  0  0  0  0  0  0  0  0  0  0  0
  -10.0581   -1.4180  -33.6524 C   0  0  0  0  0  0  0  0  0  0  0  0
   -9.0215   -1.6433  -32.7718 C   0  0  0  0  0  0  0  0  0  0  0  0
   -8.2559   -0.5947  -32.3169 C   0  0  0  0  0  0  0  0  0  0  0  0
   -8.4870    0.7063  -32.7146 C   0  0  0  0  0  0  0  0  0  0  0  0
   -7.4861    2.0232  -32.1114 Cl  0  0  0  0  0  0  0  0  0  0  0  0
   -9.5228    0.9253  -33.5936 C   0  0  0  0  0  0  0  0  0  0  0  0
  -10.2953   -0.1212  -34.0543 C   0  0  0  0  0  0  0  0  0  0  0  0
  -15.5585   -0.2934  -33.1865 C   0  0  0  0  0  0  0  0  0  0  0  0
  -14.8068    0.3882  -33.9771 O   0  0  0  0  0  0  0  0  0  0  0  0
  -16.8812   -0.5539  -33.5421 N   0  0  0  0  0  0  0  0  0  0  0  0
  -17.3983   -0.0264  -34.7981 C   0  0  0  0  0  0  0  0  0  0  0  0
  -18.0570   -1.0472  -35.6600 C   0  0  0  0  0  0  0  0  0  0  0  0
  -18.6781   -2.1504  -34.8530 C   0  0  0  0  0  0  0  0  0  0  0  0
  -19.0901   -1.5817  -33.5049 C   0  0  0  0  0  0  0  0  0  0  0  0
  -17.7794   -1.3288  -32.7419 C   0  0  0  0  0  0  0  0  0  0  0  0
  4  3  1  1
  4  5  1  0
  5  6  1  0
  6  7  1  0
  7  8  1  0
  8  9  1  0
  9 10  2  0
 10 11  1  0
 11 12  2  0
 12 13  1  0
 12 14  1  0
 14 15  2  0
  4 16  1  0
 16 17  2  0
 16 18  1  0
 18 19  1  0
 19 20  1  0
 20 21  1  0
 21 22  1  0
 22 23  1  0
 15  9  1  0
 23 18  1  0
M  END
$$$$
