
     RDKit          3D

 21 23  0  0  0  0  0  0  0  0999 V2000
  -21.1773   19.3343  -32.5673 O   0  0  0  0  0  0  0  0  0  0  0  0
  -20.1141   18.8060  -32.2412 C   0  0  0  0  0  0  0  0  0  0  0  0
  -19.5021   19.3854  -31.1143 O   0  0  0  0  0  0  0  0  0  0  0  0
  -19.5003   17.6875  -32.9175 C   0  0  0  0  0  0  0  0  0  0  0  0
  -18.3915   17.0634  -32.2981 C   0  0  0  0  0  0  0  0  0  0  0  0
  -17.7557   15.9954  -32.8792 C   0  0  0  0  0  0  0  0  0  0  0  0
  -16.6094   15.3268  -32.2695 C   0  0  0  0  0  0  0  0  0  0  0  0
  -16.5943   15.0582  -30.9152 C   0  0  0  0  0  0  0  0  0  0  0  0
  -15.5335   14.4303  -30.3034 C   0  0  0  0  0  0  0  0  0  0  0  0
  -14.4288   14.0392  -31.0281 C   0  0  0  0  0  0  0  0  0  0  0  0
  -12.9453   13.1616  -30.1755 Br  0  0  0  0  0  0  0  0  0  0  0  0
  -14.4208   14.2968  -32.3829 C   0  0  0  0  0  0  0  0  0  0  0  0
  -15.4982   14.9303  -32.9824 C   0  0  0  0  0  0  0  0  0  0  0  0
  -18.2024   15.5397  -34.0612 N   0  0  0  0  0  0  0  0  0  0  0  0
  -19.2467   16.0826  -34.7039 C   0  0  0  0  0  0  0  0  0  0  0  0
  -19.6552   15.5555  -35.9305 C   0  0  0  0  0  0  0  0  0  0  0  0
  -20.7269   16.1501  -36.5405 C   0  0  0  0  0  0  0  0  0  0  0  0
  -21.3821   17.2066  -35.9998 C   0  0  0  0  0  0  0  0  0  0  0  0
  -22.7727   17.9533  -36.8244 Cl  0  0  0  0  0  0  0  0  0  0  0  0
  -20.9681   17.7171  -34.7881 C   0  0  0  0  0  0  0  0  0  0  0  0
  -19.9031   17.1747  -34.1177 C   0  0  0  0  0  0  0  0  0  0  0  0
  1  2  2  0
  2  3  1  0
  2  4  1  0
  4  5  2  0
  5  6  1  0
  6  7  1  0
  7  8  2  0
  8  9  1  0
  9 10  2  0
 10 11  1  0
 10 12  1  0
 12 13  2  0
  6 14  2  0
 14 15  1  0
 15 16  2  0
 16 17  1  0
 17 18  2  0
 18 19  1  0
 18 20  1  0
 20 21  2  0
 21  4  1  0
 13  7  1  0
 21 15  1  0
M  END
$$$$
