
     RDKit          3D

 33 37  0  0  0  0  0  0  0  0999 V2000
    2.9818   31.1153  -19.1778 N   0  0  0  0  0  0  0  0  0  0  0  0
    3.1606   30.0170  -19.3114 C   0  0  0  0  0  0  0  0  0  0  0  0
    3.4103   28.5767  -19.5044 C   0  0  0  0  0  0  0  0  0  0  0  0
    2.5959   27.6591  -20.1035 C   0  0  0  0  0  0  0  0  0  0  0  0
    3.1579   26.3970  -20.0755 C   0  0  0  0  0  0  0  0  0  0  0  0
    2.7738   25.1518  -20.5084 C   0  0  0  0  0  0  0  0  0  0  0  0
    3.5565   24.0073  -20.3310 C   0  0  0  0  0  0  0  0  0  0  0  0
    3.0607   22.6845  -20.8038 C   0  0  0  0  0  0  0  0  0  0  0  0
    1.9951   22.1299  -20.0347 N   0  0  0  0  0  0  0  0  0  0  0  0
    1.0773   21.3868  -20.8243 C   0  0  0  0  0  0  0  0  0  0  0  0
    0.9662   19.9331  -20.2805 C   0  0  0  0  0  0  0  0  0  0  0  0
    2.3925   19.4221  -20.3134 C   0  0  0  0  0  0  0  0  0  0  0  0
    2.4905   17.9832  -20.1880 N   0  0  0  0  0  0  0  0  0  0  0  0
    1.3220   17.1671  -20.4139 C   0  0  0  0  0  0  0  0  0  0  0  0
    0.8348   17.0748  -21.6376 N   0  0  0  0  0  0  0  0  0  0  0  0
   -0.2580   16.3599  -22.0042 C   0  0  0  0  0  0  0  0  0  0  0  0
   -0.8761   15.6909  -20.9799 N   0  0  0  0  0  0  0  0  0  0  0  0
   -0.4170   15.7609  -19.7474 C   0  0  0  0  0  0  0  0  0  0  0  0
   -0.9186   15.0259  -18.1520 S   0  0  0  0  0  0  0  0  0  0  0  0
    0.3886   15.7434  -17.1267 C   0  0  0  0  0  0  0  0  0  0  0  0
    0.4077   15.4399  -15.7455 C   0  0  0  0  0  0  0  0  0  0  0  0
   -0.5900   16.2587  -14.9671 C   0  0  0  0  0  0  0  0  0  0  0  0
   -1.8451   15.8392  -15.4441 F   0  0  0  0  0  0  0  0  0  0  0  0
   -0.5175   17.5986  -15.1397 F   0  0  0  0  0  0  0  0  0  0  0  0
   -0.6033   15.9176  -13.6154 F   0  0  0  0  0  0  0  0  0  0  0  0
    1.0589   16.4480  -18.0555 C   0  0  0  0  0  0  0  0  0  0  0  0
    0.7064   16.4867  -19.3282 C   0  0  0  0  0  0  0  0  0  0  0  0
    3.0641   20.0917  -19.1193 C   0  0  0  0  0  0  0  0  0  0  0  0
    2.5281   21.4607  -18.8847 C   0  0  0  0  0  0  0  0  0  0  0  0
    4.7545   24.1996  -19.6890 C   0  0  0  0  0  0  0  0  0  0  0  0
    5.1612   25.4510  -19.2436 C   0  0  0  0  0  0  0  0  0  0  0  0
    4.3739   26.5673  -19.4275 C   0  0  0  0  0  0  0  0  0  0  0  0
    4.4900   27.8841  -19.1009 N   0  0  0  0  0  0  0  0  0  0  0  0
  1  2  3  0
  2  3  1  0
  3  4  2  0
  4  5  1  0
  5  6  2  0
  6  7  1  0
  7  8  1  0
  8  9  1  0
  9 10  1  0
 10 11  1  0
 11 12  1  0
 12 13  1  0
 13 14  1  0
 14 15  2  0
 15 16  1  0
 16 17  2  0
 17 18  1  0
 18 19  1  0
 19 20  1  0
 20 21  1  0
 21 22  1  0
 22 23  1  0
 22 24  1  0
 22 25  1  0
 20 26  2  0
 26 27  1  0
 12 28  1  0
 28 29  1  0
  7 30  2  0
 30 31  1  0
 31 32  2  0
 32 33  1  0
 33  3  1  0
 32  5  1  0
 29  9  1  0
 27 14  1  0
 27 18  2  0
M  END
$$$$
