
     RDKit          3D

 20 21  0  0  0  0  0  0  0  0999 V2000
  -19.1133   19.6002  -31.5227 C   0  0  0  0  0  0  0  0  0  0  0  0
  -18.9431   19.3315  -32.8896 O   0  0  0  0  0  0  0  0  0  0  0  0
  -17.9431   18.5013  -33.3639 C   0  0  0  0  0  0  0  0  0  0  0  0
  -16.7051   18.5860  -32.7787 C   0  0  0  0  0  0  0  0  0  0  0  0
  -15.6730   17.7848  -33.2095 C   0  0  0  0  0  0  0  0  0  0  0  0
  -14.4277   17.8805  -32.6097 O   0  0  0  0  0  0  0  0  0  0  0  0
  -15.9415   16.9127  -34.2360 C   0  0  0  0  0  0  0  0  0  0  0  0
  -17.2082   16.8274  -34.8334 C   0  0  0  0  0  0  0  0  0  0  0  0
  -17.4100   15.9170  -35.8736 O   0  0  0  0  0  0  0  0  0  0  0  0
  -18.2458   17.6217  -34.4121 C   0  0  0  0  0  0  0  0  0  0  0  0
  -19.5845   17.6212  -34.9489 C   0  0  0  0  0  0  0  0  0  0  0  0
  -20.2885   16.5648  -34.8310 O   0  0  0  0  0  0  0  0  0  0  0  0
  -20.2456   18.7244  -35.6322 C   0  0  0  0  0  0  0  0  0  0  0  0
  -21.4814   18.6186  -36.0748 C   0  0  0  0  0  0  0  0  0  0  0  0
  -22.0379   17.3497  -36.5176 C   0  0  0  0  0  0  0  0  0  0  0  0
  -22.3032   16.2760  -35.7061 C   0  0  0  0  0  0  0  0  0  0  0  0
  -22.8339   15.0726  -36.1428 C   0  0  0  0  0  0  0  0  0  0  0  0
  -23.1125   14.9517  -37.4864 C   0  0  0  0  0  0  0  0  0  0  0  0
  -22.8595   16.0134  -38.3424 C   0  0  0  0  0  0  0  0  0  0  0  0
  -22.3359   17.1908  -37.8901 C   0  0  0  0  0  0  0  0  0  0  0  0
  1  2  1  0
  2  3  1  0
  3  4  2  0
  4  5  1  0
  5  6  1  0
  5  7  2  0
  7  8  1  0
  8  9  1  0
  8 10  2  0
 10 11  1  0
 11 12  2  0
 11 13  1  0
 13 14  2  0
 14 15  1  0
 15 16  2  0
 16 17  1  0
 17 18  2  0
 18 19  1  0
 19 20  2  0
 10  3  1  0
 20 15  1  0
M  END
$$$$
