
     RDKit          3D

 40 44  0  0  0  0  0  0  0  0999 V2000
    4.2608   29.7112  -15.3427 C   0  0  0  0  0  0  0  0  0  0  0  0
    5.1008   28.8933  -16.2969 C   0  0  0  0  0  0  0  0  0  0  0  0
    4.6753   27.5176  -16.2018 N   0  0  0  0  0  0  0  0  0  0  0  0
    3.2694   27.3529  -16.4774 C   0  0  0  0  0  0  0  0  0  0  0  0
    2.9425   27.3320  -17.9322 C   0  0  0  0  0  0  0  0  0  0  0  0
    3.8135   26.4609  -18.6342 N   0  0  0  0  0  0  0  0  0  0  0  0
    3.4009   26.0633  -19.9304 C   0  0  0  0  0  0  0  0  0  0  0  0
    2.9575   24.6510  -19.9283 C   0  0  0  0  0  0  0  0  0  0  0  0
    3.7860   23.7084  -19.4025 C   0  0  0  0  0  0  0  0  0  0  0  0
    3.4076   22.3605  -19.3765 C   0  0  0  0  0  0  0  0  0  0  0  0
    2.1962   21.9443  -19.8765 C   0  0  0  0  0  0  0  0  0  0  0  0
    1.8436   20.5366  -19.8303 C   0  0  0  0  0  0  0  0  0  0  0  0
    1.9844   19.8974  -18.7483 O   0  0  0  0  0  0  0  0  0  0  0  0
    1.3444   19.8045  -20.9206 N   0  0  0  0  0  0  0  0  0  0  0  0
    0.5702   18.5954  -20.8047 C   0  0  0  0  0  0  0  0  0  0  0  0
   -0.8060   18.6403  -20.8852 C   0  0  0  0  0  0  0  0  0  0  0  0
   -1.5883   17.5169  -20.7801 C   0  0  0  0  0  0  0  0  0  0  0  0
   -0.9834   16.2643  -20.5827 C   0  0  0  0  0  0  0  0  0  0  0  0
   -1.8393   15.0664  -20.4873 C   0  0  0  0  0  0  0  0  0  0  0  0
    0.3803   16.2020  -20.5000 C   0  0  0  0  0  0  0  0  0  0  0  0
    1.0638   15.0188  -20.3074 O   0  0  0  0  0  0  0  0  0  0  0  0
    1.4325   14.2201  -21.3663 C   0  0  0  0  0  0  0  0  0  0  0  0
    0.9771   12.9434  -21.5951 C   0  0  0  0  0  0  0  0  0  0  0  0
    1.3818   12.1933  -22.6672 C   0  0  0  0  0  0  0  0  0  0  0  0
    2.2845   12.6928  -23.5889 C   0  0  0  0  0  0  0  0  0  0  0  0
    2.7481   13.9583  -23.3802 C   0  0  0  0  0  0  0  0  0  0  0  0
    2.3513   14.7141  -22.3150 C   0  0  0  0  0  0  0  0  0  0  0  0
    3.6946   14.2885  -24.4781 C   0  0  0  0  0  0  0  0  0  0  0  0
    3.7250   13.0880  -25.3330 C   0  0  0  0  0  0  0  0  0  0  0  0
    4.4171   12.9731  -26.3773 O   0  0  0  0  0  0  0  0  0  0  0  0
    2.8590   12.1334  -24.7695 N   0  0  0  0  0  0  0  0  0  0  0  0
    1.1594   17.3771  -20.6125 C   0  0  0  0  0  0  0  0  0  0  0  0
    1.3702   22.9087  -20.4044 C   0  0  0  0  0  0  0  0  0  0  0  0
    1.7362   24.2519  -20.4357 C   0  0  0  0  0  0  0  0  0  0  0  0
    0.8228   25.2647  -21.0160 C   0  0  0  0  0  0  0  0  0  0  0  0
    1.3844   25.9721  -22.0489 F   0  0  0  0  0  0  0  0  0  0  0  0
   -0.3686   24.6576  -21.4051 F   0  0  0  0  0  0  0  0  0  0  0  0
    0.4770   26.1540  -20.0178 F   0  0  0  0  0  0  0  0  0  0  0  0
    5.2025   26.6697  -18.4431 C   0  0  0  0  0  0  0  0  0  0  0  0
    5.5028   26.6147  -16.9624 C   0  0  0  0  0  0  0  0  0  0  0  0
  1  2  1  0
  2  3  1  0
  3  4  1  0
  4  5  1  0
  5  6  1  0
  6  7  1  0
  7  8  1  0
  8  9  2  0
  9 10  1  0
 10 11  2  0
 11 12  1  0
 12 13  2  0
 12 14  1  0
 14 15  1  0
 15 16  2  0
 16 17  1  0
 17 18  2  0
 18 19  1  0
 18 20  1  0
 20 21  1  0
 21 22  1  0
 22 23  2  0
 23 24  1  0
 24 25  2  0
 25 26  1  0
 26 27  2  0
 26 28  1  0
 28 29  1  0
 29 30  2  0
 29 31  1  0
 20 32  2  0
 11 33  1  0
 33 34  2  0
 34 35  1  0
 35 36  1  0
 35 37  1  0
 35 38  1  0
  6 39  1  0
 39 40  1  0
 40  3  1  0
 34  8  1  0
 32 15  1  0
 27 22  1  0
 31 25  1  0
M  END
$$$$
