
     RDKit          3D

 37 40  0  0  0  0  0  0  0  0999 V2000
  -33.9827   14.3773  -25.8960 C   0  0  0  0  0  0  0  0  0  0  0  0
  -32.5973   14.5210  -25.3418 C   0  0  0  0  0  0  0  0  0  0  0  0
  -31.3671   13.7933  -26.4252 S   0  0  0  0  0  6  0  0  0  0  0  0
  -32.0088   12.7138  -27.2499 O   0  0  0  0  0  0  0  0  0  0  0  0
  -30.2484   13.2159  -25.6358 O   0  0  0  0  0  0  0  0  0  0  0  0
  -30.8688   15.0404  -27.5001 N   0  0  0  0  0  0  0  0  0  0  0  0
  -31.7628   15.2307  -28.5963 C   0  0  0  0  0  0  0  0  0  0  0  0
  -32.1886   16.6599  -28.7971 C   0  0  0  0  0  0  0  0  0  0  0  0
  -30.9249   17.5457  -29.0519 C   0  0  0  0  0  0  0  0  0  0  0  0
  -31.3168   18.9464  -29.0176 C   0  0  0  0  0  0  0  0  0  0  0  0
  -32.1951   19.1997  -30.2617 C   0  0  0  0  0  0  0  0  0  0  0  0
  -30.3889   20.0032  -28.9587 N   0  0  0  0  0  0  0  0  0  0  0  0
  -29.8901   20.4873  -30.1396 C   0  0  0  0  0  0  0  0  0  0  0  0
  -30.1683   20.0508  -31.5275 C   0  0  0  0  0  0  0  0  0  0  0  0
  -29.0122   21.5145  -29.8668 C   0  0  0  0  0  0  0  0  0  0  0  0
  -28.2544   22.2646  -30.8762 C   0  0  0  0  0  0  0  0  0  0  0  0
  -28.6010   23.4566  -31.0358 O   0  0  0  0  0  0  0  0  0  0  0  0
  -27.2015   21.7750  -31.6497 N   0  0  0  0  0  0  0  0  0  0  0  0
  -26.1395   22.4642  -32.3153 C   0  0  0  0  0  0  0  0  0  0  0  0
  -24.7881   22.3111  -31.7381 C   0  0  0  0  0  0  0  0  0  0  0  0
  -24.0275   21.1897  -31.8721 C   0  0  0  0  0  0  0  0  0  0  0  0
  -24.4809   20.0529  -32.4979 O   0  0  0  0  0  0  0  0  0  0  0  0
  -23.6699   18.9121  -32.6634 C   0  0  0  0  0  0  0  0  0  0  0  0
  -22.7493   21.1796  -31.3551 C   0  0  0  0  0  0  0  0  0  0  0  0
  -22.1996   22.2565  -30.7020 C   0  0  0  0  0  0  0  0  0  0  0  0
  -20.8223   22.2394  -30.1496 C   0  0  0  0  0  0  0  0  0  0  0  0
  -22.9511   23.3564  -30.5698 N   0  0  0  0  0  0  0  0  0  0  0  0
  -24.1859   23.3837  -31.0635 C   0  0  0  0  0  0  0  0  0  0  0  0
  -24.8838   24.4167  -30.9360 O   0  0  0  0  0  0  0  0  0  0  0  0
  -28.9964   21.6283  -28.5005 C   0  0  0  0  0  0  0  0  0  0  0  0
  -28.2978   22.4531  -27.6315 C   0  0  0  0  0  0  0  0  0  0  0  0
  -28.4536   22.3434  -26.2655 C   0  0  0  0  0  0  0  0  0  0  0  0
  -29.3098   21.4058  -25.7496 C   0  0  0  0  0  0  0  0  0  0  0  0
  -30.0263   20.5596  -26.5803 C   0  0  0  0  0  0  0  0  0  0  0  0
  -29.8589   20.6826  -27.9341 C   0  0  0  0  0  0  0  0  0  0  0  0
  -30.0382   17.2284  -27.8779 C   0  0  0  0  0  0  0  0  0  0  0  0
  -30.6641   16.3135  -26.8518 C   0  0  0  0  0  0  0  0  0  0  0  0
  1  2  1  0
  2  3  1  0
  3  4  2  0
  3  5  2  0
  3  6  1  0
  6  7  1  0
  7  8  1  0
  8  9  1  0
  9 10  1  0
 10 11  1  0
 10 12  1  0
 12 13  1  0
 13 14  1  0
 13 15  2  0
 15 16  1  0
 16 17  2  0
 16 18  1  0
 18 19  1  0
 19 20  1  0
 20 21  2  0
 21 22  1  0
 22 23  1  0
 21 24  1  0
 24 25  2  0
 25 26  1  0
 25 27  1  0
 27 28  1  0
 28 29  2  0
 15 30  1  0
 30 31  2  0
 31 32  1  0
 32 33  2  0
 33 34  1  0
 34 35  2  0
  9 36  1  0
 36 37  1  0
 37  6  1  0
 35 12  1  0
 28 20  1  0
 35 30  1  0
M  END
$$$$
