
     RDKit          3D

 48 56  0  0  0  0  0  0  0  0999 V2000
  -33.3247   16.8688  -25.9024 C   0  0  0  0  0  0  0  0  0  0  0  0
  -32.6431   15.6560  -26.3855 C   0  0  0  0  0  0  0  0  0  0  0  0
  -31.4088   15.6866  -27.0342 C   0  0  0  0  0  0  0  0  0  0  0  0
  -30.6185   16.8739  -27.3254 C   0  0  0  0  0  0  0  0  0  0  0  0
  -29.3734   16.9361  -26.7167 C   0  0  0  0  0  0  0  0  0  0  0  0
  -28.6197   18.0595  -26.9657 C   0  0  0  0  0  0  0  0  0  0  0  0
  -29.0333   19.1049  -27.7726 C   0  0  0  0  0  0  0  0  0  0  0  0
  -28.1804   20.2439  -27.9655 N   0  0  0  0  0  0  0  0  0  0  0  0
  -26.9583   20.2800  -27.2350 C   0  0  0  0  0  0  0  0  0  0  0  0
  -26.1231   21.4835  -27.3377 C   0  0  0  0  0  0  0  0  0  0  0  0
  -26.2923   22.2014  -28.6084 C   0  0  0  0  0  0  0  0  0  0  0  0
  -25.2250   22.9989  -29.0751 C   0  0  0  0  0  0  0  0  0  0  0  0
  -25.3798   23.7049  -30.2420 C   0  0  0  0  0  0  0  0  0  0  0  0
  -26.5548   23.6458  -30.9566 C   0  0  0  0  0  0  0  0  0  0  0  0
  -27.6124   22.8489  -30.4841 C   0  0  0  0  0  0  0  0  0  0  0  0
  -28.8079   22.8681  -31.2729 C   0  0  0  0  0  0  0  0  0  0  0  0
  -29.9048   22.9387  -30.6112 O   0  0  0  0  0  0  0  0  0  0  0  0
  -28.9404   22.8127  -32.6587 N   0  0  0  0  0  0  0  0  0  0  0  0
  -27.7999   22.8892  -33.5747 C   0  0  0  0  0  0  0  0  0  0  0  0
  -27.4947   22.2664  -34.6008 N   0  0  0  0  0  0  0  0  0  0  0  0
  -26.4281   22.4774  -35.3170 C   0  0  0  0  0  0  0  0  0  0  0  0
  -26.0296   21.8033  -36.4886 C   0  0  0  0  0  0  0  0  0  0  0  0
  -24.8763   22.1553  -37.1160 C   0  0  0  0  0  0  0  0  0  0  0  0
  -24.0299   23.1455  -36.6981 C   0  0  0  0  0  0  0  0  0  0  0  0
  -24.3989   23.8371  -35.5334 C   0  0  0  0  0  0  0  0  0  0  0  0
  -25.5886   23.4558  -34.9063 C   0  0  0  0  0  0  0  0  0  0  0  0
  -26.4401   24.0409  -33.4280 S   0  0  0  0  0  0  0  0  0  0  0  0
  -27.4762   22.1399  -29.3284 C   0  0  0  0  0  0  0  0  0  0  0  0
  -28.6032   21.3060  -28.8760 C   0  0  0  0  0  0  0  0  0  0  0  0
  -30.2346   19.0012  -28.3356 N   0  0  0  0  0  0  0  0  0  0  0  0
  -31.0226   17.9144  -28.1273 C   0  0  0  0  0  0  0  0  0  0  0  0
  -32.3323   17.8145  -28.7659 C   0  0  0  0  0  0  0  0  0  0  0  0
  -33.1329   16.9088  -28.4378 O   0  0  0  0  0  0  0  0  0  0  0  0
  -32.7141   18.7146  -29.7432 O   0  0  0  0  0  0  0  0  0  0  0  0
  -31.0931   14.3794  -27.3140 C   0  0  0  0  0  0  0  0  0  0  0  0
  -32.0872   13.6098  -26.8559 N   0  0  0  0  0  0  0  0  0  0  0  0
  -33.0198   14.3775  -26.2970 N   0  0  0  0  0  0  0  0  0  0  0  0
  -34.2295   13.8768  -25.7205 C   0  0  0  0  0  0  0  0  0  0  0  0
  -34.0783   13.1922  -24.4029 C   0  0  0  0  0  0  0  0  0  0  0  0
  -35.3545   12.6691  -23.8338 C   0  0  0  0  0  0  0  0  0  0  0  0
  -35.1386   12.0426  -22.4806 C   0  0  0  0  0  0  0  0  0  0  0  0
  -34.6358   13.1074  -21.5327 C   0  0  0  0  0  0  0  0  0  0  0  0
  -33.3342   13.6615  -22.0496 C   0  0  0  0  0  0  0  0  0  0  0  0
  -32.3122   12.5524  -22.1322 C   0  0  0  0  0  0  0  0  0  0  0  0
  -32.8018   11.5197  -23.1245 C   0  0  0  0  0  0  0  0  0  0  0  0
  -34.1015   10.9335  -22.5965 C   0  0  0  0  0  0  0  0  0  0  0  0
  -33.0119   12.1129  -24.4835 C   0  0  0  0  0  0  0  0  0  0  0  0
  -33.5501   14.2293  -23.4158 C   0  0  0  0  0  0  0  0  0  0  0  0
  1  2  1  0
  2  3  2  0
  3  4  1  0
  4  5  2  0
  5  6  1  0
  6  7  2  0
  7  8  1  0
  8  9  1  0
  9 10  1  0
 10 11  1  0
 11 12  2  0
 12 13  1  0
 13 14  2  0
 14 15  1  0
 15 16  1  0
 16 17  2  0
 16 18  1  0
 18 19  1  0
 19 20  2  0
 20 21  1  0
 21 22  2  0
 22 23  1  0
 23 24  2  0
 24 25  1  0
 25 26  2  0
 26 27  1  0
 15 28  2  0
 28 29  1  0
  7 30  1  0
 30 31  2  0
 31 32  1  0
 32 33  2  0
 32 34  1  0
  3 35  1  0
 35 36  2  0
 36 37  1  0
 37 38  1  0
 38 39  1  0
 39 40  1  0
 40 41  1  0
 41 42  1  0
 42 43  1  0
 43 44  1  0
 44 45  1  0
 45 46  1  0
 45 47  1  0
 43 48  1  0
 37  2  1  0
 47 39  1  0
 31  4  1  0
 48 39  1  0
 29  8  1  0
 46 41  1  0
 28 11  1  0
 27 19  1  0
 26 21  1  0
M  END
$$$$
