
     RDKit          3D

 15 15  0  0  0  0  0  0  0  0999 V2000
  -21.5060   39.9123  -27.4780 C   0  0  0  0  0  0  0  0  0  0  0  0
  -21.1122   38.4539  -27.4614 C   0  0  0  0  0  0  0  0  0  0  0  0
  -21.5917   37.7442  -28.7073 C   0  0  0  0  0  0  0  0  0  0  0  0
  -21.7444   37.8203  -26.3236 N   0  0  0  0  0  0  0  0  0  0  0  0
  -20.8848   36.8875  -25.6563 C   0  0  0  0  0  0  0  0  0  0  0  0
  -19.6356   37.6301  -25.2264 C   0  0  0  0  0  0  0  0  0  0  0  0
  -18.7261   36.6717  -24.7914 O   0  0  0  0  0  0  0  0  0  0  0  0
  -19.9278   38.6119  -24.1104 C   0  0  0  0  0  0  0  0  0  0  0  0
  -18.8304   39.5017  -24.0248 O   0  0  0  0  0  0  0  0  0  0  0  0
  -18.0094   39.5613  -22.9151 C   0  0  0  0  0  0  0  0  0  0  0  0
  -17.7476   38.4698  -22.1064 C   0  0  0  0  0  0  0  0  0  0  0  0
  -16.9294   38.5454  -21.0073 C   0  0  0  0  0  0  0  0  0  0  0  0
  -16.3562   39.7639  -20.7146 C   0  0  0  0  0  0  0  0  0  0  0  0
  -16.5845   40.8806  -21.4874 C   0  0  0  0  0  0  0  0  0  0  0  0
  -17.4150   40.7563  -22.5836 C   0  0  0  0  0  0  0  0  0  0  0  0
  1  2  1  0
  2  3  1  0
  2  4  1  0
  4  5  1  0
  5  6  1  0
  6  7  1  0
  6  8  1  0
  8  9  1  0
  9 10  1  0
 10 11  2  0
 11 12  1  0
 12 13  2  0
 13 14  1  0
 14 15  2  0
 15 10  1  0
M  END
$$$$
