
     RDKit          3D

 19 19  0  0  0  0  0  0  0  0999 V2000
    8.3567   12.7363  -29.7567 C   0  0  0  0  0  0  0  0  0  0  0  0
    7.3370   11.7948  -30.3259 C   0  0  0  0  0  0  0  0  0  0  0  0
    7.7566   10.4556  -30.5373 N   0  0  0  0  0  0  0  0  0  0  0  0
    8.4557   10.1824  -31.8255 C   0  0  0  0  0  0  0  0  0  0  0  0
    7.4424    9.7964  -32.8779 C   0  0  0  0  0  0  0  0  0  0  0  0
    7.5804    9.3998  -29.6775 C   0  0  0  0  0  0  0  0  0  0  0  0
    8.0974    8.2795  -30.1482 O   0  0  0  0  0  0  0  0  0  0  0  0
    6.9510    9.2169  -28.3745 C   0  0  2  0  0  0  0  0  0  0  0  0
    6.5172   10.3926  -27.6025 C   0  0  0  0  0  0  0  0  0  0  0  0
    5.2033   10.6040  -27.2643 C   0  0  0  0  0  0  0  0  0  0  0  0
    4.8233   11.6697  -26.4570 C   0  0  0  0  0  0  0  0  0  0  0  0
    5.7643   12.5450  -25.9743 C   0  0  0  0  0  0  0  0  0  0  0  0
    7.0790   12.3449  -26.3046 C   0  0  0  0  0  0  0  0  0  0  0  0
    7.4330   11.2822  -27.1059 C   0  0  0  0  0  0  0  0  0  0  0  0
    7.5441    8.1508  -27.4260 C   0  0  0  0  0  0  0  0  0  0  0  0
    6.2113    7.9498  -28.1323 C   0  0  2  0  0  0  0  0  0  0  0  0
    6.1999    6.7355  -28.9627 C   0  0  0  0  0  0  0  0  0  0  0  0
    7.4745    6.0684  -29.1375 N   0  0  0  0  0  0  0  0  0  0  0  0
    7.2373   10.2876  -29.6487 Cl  0  0  0  0  0  0  0  0  0  0  0  0
  1  2  1  0
  2  3  1  0
  3  4  1  0
  4  5  1  0
  3  6  1  0
  6  7  2  0
  8  6  1  6
  8  9  1  0
  9 10  2  0
 10 11  1  0
 11 12  2  0
 12 13  1  0
 13 14  2  0
  8 15  1  0
 15 16  1  0
 16 17  1  6
 17 18  1  0
 16  8  1  0
 14  9  1  0
M  END
$$$$
