
     RDKit          3D

 18 19  0  0  0  0  0  0  0  0999 V2000
  -15.7756   15.8615  -32.3417 O   0  0  0  0  0  0  0  0  0  0  0  0
  -16.2416   14.9578  -31.5420 C   0  0  0  0  0  0  0  0  0  0  0  0
  -17.6343   14.7116  -31.6120 C   0  0  0  0  0  0  0  0  0  0  0  0
  -18.1207   13.8471  -30.7803 O   0  0  0  0  0  0  0  0  0  0  0  0
  -18.5907   15.3164  -32.5112 C   0  0  0  0  0  0  0  0  0  0  0  0
  -18.3511   15.2941  -33.9069 C   0  0  0  0  0  0  0  0  0  0  0  0
  -19.2394   15.8596  -34.7893 C   0  0  0  0  0  0  0  0  0  0  0  0
  -20.3972   16.4715  -34.3694 C   0  0  0  0  0  0  0  0  0  0  0  0
  -21.5469   17.2000  -35.4694 Cl  0  0  0  0  0  0  0  0  0  0  0  0
  -20.6283   16.4932  -33.0261 C   0  0  0  0  0  0  0  0  0  0  0  0
  -19.7317   15.9189  -32.0911 C   0  0  0  0  0  0  0  0  0  0  0  0
  -15.2511   14.3273  -30.6848 C   0  0  0  0  0  0  0  0  0  0  0  0
  -14.0535   13.9009  -31.1462 C   0  0  0  0  0  0  0  0  0  0  0  0
  -13.1008   13.2912  -30.3069 C   0  0  0  0  0  0  0  0  0  0  0  0
  -13.4057   13.1277  -28.9759 C   0  0  0  0  0  0  0  0  0  0  0  0
  -12.2124   12.3687  -27.9455 Cl  0  0  0  0  0  0  0  0  0  0  0  0
  -14.6092   13.5487  -28.4791 C   0  0  0  0  0  0  0  0  0  0  0  0
  -15.5297   14.1430  -29.3131 C   0  0  0  0  0  0  0  0  0  0  0  0
  1  2  2  0
  2  3  1  0
  3  4  2  0
  3  5  1  0
  5  6  2  0
  6  7  1  0
  7  8  2  0
  8  9  1  0
  8 10  1  0
 10 11  2  0
  2 12  1  0
 12 13  2  0
 13 14  1  0
 14 15  2  0
 15 16  1  0
 15 17  1  0
 17 18  2  0
 11  5  1  0
 18 12  1  0
M  END
$$$$
