
     RDKit          3D

 18 19  0  0  0  0  0  0  0  0999 V2000
  -37.8529   11.8527  -41.4091 C   0  0  0  0  0  0  0  0  0  0  0  0
  -39.1325   11.1107  -41.3986 C   0  0  0  0  0  0  0  0  0  0  0  0
  -40.1676   11.5126  -42.1775 C   0  0  0  0  0  0  0  0  0  0  0  0
  -41.3809   10.8144  -42.1721 C   0  0  0  0  0  0  0  0  0  0  0  0
  -42.4593   11.3312  -43.0540 C   0  0  0  0  0  0  0  0  0  0  0  0
  -41.5483    9.7118  -41.3812 C   0  0  0  0  0  0  0  0  0  0  0  0
  -43.0176    8.8287  -41.3377 S   0  0  0  0  0  6  0  0  0  0  0  0
  -44.1274    9.5545  -42.0541 O   0  0  0  0  0  0  0  0  0  0  0  0
  -43.5257    8.5760  -39.9451 O   0  0  0  0  0  0  0  0  0  0  0  0
  -42.8077    7.3133  -42.1837 N   0  0  0  0  0  0  0  0  0  0  0  0
  -43.1418    6.0071  -41.6811 C   0  0  0  0  0  0  0  0  0  0  0  0
  -42.8936    5.0532  -42.7912 C   0  0  0  0  0  0  0  0  0  0  0  0
  -41.8212    5.7259  -43.6307 C   0  0  0  0  0  0  0  0  0  0  0  0
  -42.2655    7.1662  -43.4903 C   0  0  0  0  0  0  0  0  0  0  0  0
  -42.1586    8.0407  -44.3877 O   0  0  0  0  0  0  0  0  0  0  0  0
  -40.4916    9.3148  -40.5957 C   0  0  0  0  0  0  0  0  0  0  0  0
  -40.6242    8.1533  -39.7204 C   0  0  0  0  0  0  0  0  0  0  0  0
  -39.2779   10.0137  -40.6016 C   0  0  0  0  0  0  0  0  0  0  0  0
  1  2  1  0
  2  3  2  0
  3  4  1  0
  4  5  1  0
  4  6  2  0
  6  7  1  0
  7  8  2  0
  7  9  2  0
  7 10  1  0
 10 11  1  0
 11 12  1  0
 12 13  1  0
 13 14  1  0
 14 15  2  0
  6 16  1  0
 16 17  1  0
 16 18  2  0
 18  2  1  0
 14 10  1  0
M  END
$$$$
