
     RDKit          3D

 10  9  0  0  0  0  0  0  0  0999 V2000
  -18.9111   37.1510  -23.7596 C   0  0  0  0  0  0  0  0  0  0  0  0
  -19.2309   36.0705  -22.8530 N   0  0  0  0  0  0  0  0  0  0  0  0
  -18.0545   35.5597  -22.1916 C   0  0  2  0  0  0  0  0  0  0  0  0
  -18.5341   34.6017  -21.1088 C   0  0  0  0  0  0  0  0  0  0  0  0
  -19.3488   33.5243  -21.7459 C   0  0  0  0  0  0  0  0  0  0  0  0
  -20.5850   33.5569  -21.8439 O   0  0  0  0  0  0  0  0  0  0  0  0
  -18.6911   32.3972  -22.2718 O   0  0  0  0  0  0  0  0  0  0  0  0
  -17.3512   36.6658  -21.4739 C   0  0  0  0  0  0  0  0  0  0  0  0
  -16.1192   36.6095  -21.2757 O   0  0  0  0  0  0  0  0  0  0  0  0
  -18.0232   37.7916  -21.0007 O   0  0  0  0  0  0  0  0  0  0  0  0
  1  2  1  0
  2  3  1  0
  3  4  1  1
  4  5  1  0
  5  6  2  0
  5  7  1  0
  3  8  1  0
  8  9  2  0
  8 10  1  0
M  END
$$$$
