
     RDKit          3D

 39 43  0  0  0  0  0  0  0  0999 V2000
  -11.5267    3.0666  -31.2008 C   0  0  0  0  0  0  0  0  0  0  0  0
  -11.9699    1.9257  -32.0418 N   0  0  0  0  0  0  0  0  0  0  0  0
  -12.9080    1.0292  -31.4753 C   0  0  0  0  0  0  0  0  0  0  0  0
  -13.2939    1.3204  -30.2830 O   0  0  0  0  0  0  0  0  0  0  0  0
  -13.4058   -0.1345  -32.1764 C   0  0  0  0  0  0  0  0  0  0  0  0
  -12.4955   -1.0206  -32.7556 C   0  0  0  0  0  0  0  0  0  0  0  0
  -11.1553   -0.8288  -32.7638 F   0  0  0  0  0  0  0  0  0  0  0  0
  -12.9433   -2.1937  -33.3619 C   0  0  0  0  0  0  0  0  0  0  0  0
  -14.2801   -2.4967  -33.4012 C   0  0  0  0  0  0  0  0  0  0  0  0
  -15.1534   -1.6151  -32.8289 C   0  0  0  0  0  0  0  0  0  0  0  0
  -14.7470   -0.4276  -32.2103 C   0  0  0  0  0  0  0  0  0  0  0  0
  -15.7529    0.3970  -31.6444 N   0  0  0  0  0  0  0  0  0  0  0  0
  -16.9488    0.6366  -32.4284 C   0  0  0  0  0  0  0  0  0  0  0  0
  -17.3069   -0.2292  -33.3905 N   0  0  0  0  0  0  0  0  0  0  0  0
  -18.4021    0.0187  -34.1762 C   0  0  0  0  0  0  0  0  0  0  0  0
  -18.7500   -0.9142  -35.1589 N   0  0  0  0  0  0  0  0  0  0  0  0
  -17.9468   -1.8890  -35.7601 C   0  0  0  0  0  0  0  0  0  0  0  0
  -16.6222   -2.0818  -35.4218 C   0  0  0  0  0  0  0  0  0  0  0  0
  -15.8219   -3.0555  -35.9811 C   0  0  0  0  0  0  0  0  0  0  0  0
  -16.3589   -3.8919  -36.9343 C   0  0  0  0  0  0  0  0  0  0  0  0
  -17.6921   -3.7378  -37.3076 C   0  0  0  0  0  0  0  0  0  0  0  0
  -18.4681   -2.7565  -36.7316 C   0  0  0  0  0  0  0  0  0  0  0  0
  -19.7873   -2.5910  -37.0881 O   0  0  0  0  0  0  0  0  0  0  0  0
  -20.4926   -3.5850  -37.7929 C   0  0  0  0  0  0  0  0  0  0  0  0
  -15.2735   -4.8052  -37.3607 C   0  0  0  0  0  0  0  0  0  0  0  0
  -13.9895   -4.0550  -36.9257 C   0  0  0  0  0  0  0  0  0  0  0  0
  -14.4319   -3.4246  -35.7179 N   0  0  0  0  0  0  0  0  0  0  0  0
  -13.8341   -3.1657  -34.4683 C   0  0  0  0  0  0  0  0  0  0  0  0
  -12.6517   -3.6146  -34.2225 O   0  0  0  0  0  0  0  0  0  0  0  0
  -14.5249   -2.3849  -33.4262 C   0  0  0  0  0  0  0  0  0  0  0  0
  -13.7787   -2.1778  -32.2027 N   0  0  0  0  0  0  0  0  0  0  0  0
  -14.6057   -2.6495  -31.0541 C   0  0  0  0  0  0  0  0  0  0  0  0
  -13.6037   -0.7181  -31.9882 C   0  0  0  0  0  0  0  0  0  0  0  0
  -19.0720    1.1492  -33.9229 N   0  0  0  0  0  0  0  0  0  0  0  0
  -18.7471    2.0379  -32.9695 C   0  0  0  0  0  0  0  0  0  0  0  0
  -19.2401    3.2081  -32.5317 N   0  0  0  0  0  0  0  0  0  0  0  0
  -18.5033    3.6878  -31.5237 C   0  0  0  0  0  0  0  0  0  0  0  0
  -17.4746    2.8376  -31.2496 C   0  0  0  0  0  0  0  0  0  0  0  0
  -17.6378    1.7938  -32.1714 C   0  0  0  0  0  0  0  0  0  0  0  0
  1  2  1  0
  2  3  1  0
  3  4  2  0
  3  5  1  0
  5  6  2  0
  6  7  1  0
  6  8  1  0
  8  9  2  0
  9 10  1  0
 10 11  2  0
 11 12  1  0
 12 13  1  0
 13 14  2  0
 14 15  1  0
 15 16  1  0
 16 17  1  0
 17 18  2  0
 18 19  1  0
 19 20  2  0
 20 21  1  0
 21 22  2  0
 22 23  1  0
 23 24  1  0
 20 25  1  0
 25 26  1  0
 26 27  1  0
 27 28  1  0
 28 29  2  0
 28 30  1  0
 30 31  1  0
 31 32  1  0
 31 33  1  0
 15 34  2  0
 34 35  1  0
 35 36  1  0
 36 37  1  0
 37 38  2  0
 38 39  1  0
 11  5  1  0
 39 13  1  0
 22 17  1  0
 39 35  2  0
 27 19  1  0
M  END
$$$$
