
     RDKit          3D

 28 29  0  0  0  0  0  0  0  0999 V2000
  -23.9851   38.9189  -29.1017 C   0  0  0  0  0  0  0  0  0  0  0  0
  -23.1619   39.4370  -28.0272 N   0  0  0  0  0  0  0  0  0  0  0  0
  -22.2268   38.4756  -27.5383 C   0  0  0  0  0  0  0  0  0  0  0  0
  -21.4778   39.1350  -26.3738 C   0  0  0  0  0  0  0  0  0  0  0  0
  -20.5615   40.1600  -26.9944 C   0  0  0  0  0  0  0  0  0  0  0  0
  -20.1830   41.1205  -25.9082 C   0  0  0  0  0  0  0  0  0  0  0  0
  -20.4848   42.3210  -26.0637 O   0  0  0  0  0  0  0  0  0  0  0  0
  -19.4862   40.6264  -24.7264 C   0  0  0  0  0  0  0  0  0  0  0  0
  -19.1587   41.5544  -23.7546 C   0  0  0  0  0  0  0  0  0  0  0  0
  -18.5095   41.1542  -22.6325 C   0  0  0  0  0  0  0  0  0  0  0  0
  -18.1839   39.7929  -22.4863 C   0  0  0  0  0  0  0  0  0  0  0  0
  -18.5106   38.8974  -23.4446 C   0  0  0  0  0  0  0  0  0  0  0  0
  -18.2223   37.5233  -23.3771 N   0  0  0  0  0  0  0  0  0  0  0  0
  -17.5626   36.8900  -22.3312 C   0  0  0  0  0  0  0  0  0  0  0  0
  -17.1433   37.5454  -21.3096 O   0  0  0  0  0  0  0  0  0  0  0  0
  -17.2872   35.4514  -22.2962 C   0  0  0  0  0  0  0  0  0  0  0  0
  -16.4048   34.9624  -21.3161 C   0  0  0  0  0  0  0  0  0  0  0  0
  -15.8304   35.8461  -20.4627 F   0  0  0  0  0  0  0  0  0  0  0  0
  -16.0971   33.6445  -21.1840 C   0  0  0  0  0  0  0  0  0  0  0  0
  -16.6721   32.7355  -22.0473 C   0  0  0  0  0  0  0  0  0  0  0  0
  -16.4090   31.4012  -21.9730 F   0  0  0  0  0  0  0  0  0  0  0  0
  -17.5333   33.1949  -23.0065 C   0  0  0  0  0  0  0  0  0  0  0  0
  -17.8451   34.5362  -23.1387 C   0  0  0  0  0  0  0  0  0  0  0  0
  -18.7285   34.8969  -24.1109 F   0  0  0  0  0  0  0  0  0  0  0  0
  -19.1657   39.3443  -24.5616 N   0  0  0  0  0  0  0  0  0  0  0  0
  -21.1475   40.8479  -28.1779 C   0  0  0  0  0  0  0  0  0  0  0  0
  -22.6417   40.7335  -28.2828 C   0  0  0  0  0  0  0  0  0  0  0  0
  -19.5087   37.9320  -24.4801 Cl  0  0  0  0  0  0  0  0  0  0  0  0
  1  2  1  0
  2  3  1  0
  3  4  1  0
  4  5  1  0
  5  6  1  0
  6  7  2  0
  6  8  1  0
  8  9  2  0
  9 10  1  0
 10 11  2  0
 11 12  1  0
 12 13  1  0
 13 14  1  0
 14 15  2  0
 14 16  1  0
 16 17  2  0
 17 18  1  0
 17 19  1  0
 19 20  2  0
 20 21  1  0
 20 22  1  0
 22 23  2  0
 23 24  1  0
 12 25  2  0
  5 26  1  0
 26 27  1  0
 27  2  1  0
 25  8  1  0
 23 16  1  0
M  END
$$$$
