
     RDKit          3D

 31 34  0  0  0  0  0  0  0  0999 V2000
  -15.3128   43.7221  -22.3708 C   0  0  0  0  0  0  0  0  0  0  0  0
  -16.7014   43.7509  -22.9005 C   0  0  0  0  0  0  0  0  0  0  0  0
  -17.0038   44.5519  -24.0110 C   0  0  0  0  0  0  0  0  0  0  0  0
  -18.3030   44.5479  -24.4681 C   0  0  0  0  0  0  0  0  0  0  0  0
  -19.2957   43.7943  -23.8778 C   0  0  0  0  0  0  0  0  0  0  0  0
  -20.6659   43.8414  -24.4257 C   0  0  2  0  0  0  0  0  0  0  0  0
  -20.6988   43.3852  -25.7307 O   0  0  0  0  0  0  0  0  0  0  0  0
  -21.9533   43.2955  -26.2528 C   0  0  2  0  0  0  0  0  0  0  0  0
  -22.0483   43.9353  -27.6431 C   0  0  0  0  0  0  0  0  0  0  0  0
  -22.3842   42.9724  -28.5987 O   0  0  0  0  0  0  0  0  0  0  0  0
  -23.0476   43.8509  -25.4056 C   0  0  1  0  0  0  0  0  0  0  0  0
  -23.5687   42.9124  -24.5133 O   0  0  0  0  0  0  0  0  0  0  0  0
  -22.6874   45.1436  -24.7218 C   0  0  2  0  0  0  0  0  0  0  0  0
  -23.1919   46.2459  -25.4089 O   0  0  0  0  0  0  0  0  0  0  0  0
  -21.2130   45.2664  -24.4482 C   0  0  1  0  0  0  0  0  0  0  0  0
  -20.9167   45.9540  -23.2991 O   0  0  0  0  0  0  0  0  0  0  0  0
  -18.9452   43.0309  -22.7974 C   0  0  0  0  0  0  0  0  0  0  0  0
  -17.6469   42.9806  -22.2725 C   0  0  0  0  0  0  0  0  0  0  0  0
  -17.3454   42.1352  -21.1073 C   0  0  0  0  0  0  0  0  0  0  0  0
  -17.3917   40.7372  -21.2431 C   0  0  0  0  0  0  0  0  0  0  0  0
  -16.4555   39.7086  -20.9975 C   0  0  0  0  0  0  0  0  0  0  0  0
  -16.7498   38.4498  -21.2169 C   0  0  0  0  0  0  0  0  0  0  0  0
  -18.0036   38.1082  -21.7004 C   0  0  0  0  0  0  0  0  0  0  0  0
  -18.5913   36.8604  -22.0268 C   0  0  0  0  0  0  0  0  0  0  0  0
  -19.9164   36.5570  -21.7963 C   0  0  0  0  0  0  0  0  0  0  0  0
  -20.4552   35.3318  -22.1291 C   0  0  0  0  0  0  0  0  0  0  0  0
  -19.6771   34.3507  -22.7130 C   0  0  0  0  0  0  0  0  0  0  0  0
  -20.1823   33.1361  -23.0507 F   0  0  0  0  0  0  0  0  0  0  0  0
  -18.3506   34.6418  -22.9484 C   0  0  0  0  0  0  0  0  0  0  0  0
  -17.8158   35.8855  -22.6075 C   0  0  0  0  0  0  0  0  0  0  0  0
  -18.8164   39.7292  -21.8481 S   0  0  0  0  0  0  0  0  0  0  0  0
  1  2  1  0
  2  3  2  0
  3  4  1  0
  4  5  2  0
  6  5  1  6
  6  7  1  0
  7  8  1  0
  8  9  1  6
  9 10  1  0
  8 11  1  0
 11 12  1  1
 11 13  1  0
 13 14  1  6
 13 15  1  0
 15 16  1  1
  5 17  1  0
 17 18  2  0
 18 19  1  0
 19 20  1  0
 20 21  2  0
 21 22  1  0
 22 23  2  0
 23 24  1  0
 24 25  2  0
 25 26  1  0
 26 27  2  0
 27 28  1  0
 27 29  1  0
 29 30  2  0
 23 31  1  0
 18  2  1  0
 31 20  1  0
 15  6  1  0
 30 24  1  0
M  END
$$$$
