
     RDKit          3D

 16 17  0  0  0  0  0  0  0  0999 V2000
  -19.0634   42.1561  -23.1691 C   0  0  0  0  0  0  0  0  0  0  0  0
  -18.7372   40.8762  -22.4851 C   0  0  0  0  0  0  0  0  0  0  0  0
  -19.0168   39.6673  -23.0864 C   0  0  0  0  0  0  0  0  0  0  0  0
  -18.7445   38.4839  -22.5162 N   0  0  0  0  0  0  0  0  0  0  0  0
  -19.0192   37.2054  -23.1076 C   0  0  1  0  0  0  0  0  0  0  0  0
  -17.8895   36.6718  -23.8897 C   0  0  0  0  0  0  0  0  0  0  0  0
  -18.0154   35.3495  -23.8645 C   0  0  0  0  0  0  0  0  0  0  0  0
  -19.2554   35.0781  -23.0438 C   0  0  1  0  0  0  0  0  0  0  0  0
  -19.0062   33.8226  -22.2708 C   0  0  0  0  0  0  0  0  0  0  0  0
  -19.9273   33.7778  -21.2284 O   0  0  0  0  0  0  0  0  0  0  0  0
  -19.2803   36.2124  -22.1960 O   0  0  0  0  0  0  0  0  0  0  0  0
  -18.1714   38.5000  -21.2995 C   0  0  0  0  0  0  0  0  0  0  0  0
  -17.8733   37.4526  -20.6735 O   0  0  0  0  0  0  0  0  0  0  0  0
  -17.8792   39.6764  -20.6714 N   0  0  0  0  0  0  0  0  0  0  0  0
  -18.1507   40.8556  -21.2401 C   0  0  0  0  0  0  0  0  0  0  0  0
  -17.8795   41.9559  -20.6573 O   0  0  0  0  0  0  0  0  0  0  0  0
  1  2  1  0
  2  3  2  0
  3  4  1  0
  5  4  1  1
  5  6  1  0
  6  7  2  0
  7  8  1  0
  8  9  1  1
  9 10  1  0
  8 11  1  0
  4 12  1  0
 12 13  2  0
 12 14  1  0
 14 15  1  0
 15 16  2  0
 15  2  1  0
 11  5  1  0
M  END
$$$$
