
     RDKit          3D

 24 24  0  0  0  0  0  0  0  0999 V2000
    1.0401   17.9060  -15.9812 C   0  0  0  0  0  0  0  0  0  0  0  0
   -0.0442   17.5003  -16.8610 C   0  0  0  0  0  0  0  0  0  0  0  0
   -1.2560   17.0084  -16.3247 C   0  0  0  0  0  0  0  0  0  0  0  0
   -2.2897   16.6114  -17.0633 N   0  0  0  0  0  0  0  0  0  0  0  0
   -2.2254   16.6615  -18.3788 C   0  0  0  0  0  0  0  0  0  0  0  0
   -1.0865   17.1255  -18.9965 C   0  0  0  0  0  0  0  0  0  0  0  0
   -1.0397   17.1652  -20.3704 C   0  0  0  0  0  0  0  0  0  0  0  0
    0.0578   17.6094  -21.0157 C   0  0  0  0  0  0  0  0  0  0  0  0
    1.1191   18.0178  -20.2744 C   0  0  0  0  0  0  0  0  0  0  0  0
    1.1701   18.0148  -18.8567 C   0  0  0  0  0  0  0  0  0  0  0  0
    2.5063   18.5898  -17.9801 S   0  0  0  0  0  6  0  0  0  0  0  0
    2.5514   19.9961  -17.5229 O   0  0  0  0  0  0  0  0  0  0  0  0
    3.3193   17.5901  -17.1916 O   0  0  0  0  0  0  0  0  0  0  0  0
    3.7368   18.7681  -19.2569 N   0  0  0  0  0  0  0  0  0  0  0  0
    4.0745   17.5442  -19.8731 C   0  0  0  0  0  0  0  0  0  0  0  0
    5.3472   16.9569  -19.2746 C   0  0  0  0  0  0  0  0  0  0  0  0
    6.5565   17.8033  -19.4493 C   0  0  0  0  0  0  0  0  0  0  0  0
    6.8266   18.7045  -18.3458 N   0  0  0  0  0  0  0  0  0  0  0  0
    5.6715   19.3983  -17.8573 C   0  0  0  0  0  0  0  0  0  0  0  0
    4.7390   19.7011  -18.9943 C   0  0  2  0  0  0  0  0  0  0  0  0
    4.1868   21.1302  -18.8928 C   0  0  0  0  0  0  0  0  0  0  0  0
    0.0324   17.5559  -18.2267 C   0  0  0  0  0  0  0  0  0  0  0  0
    1.9857   17.9995  -18.4437 Cl  0  0  0  0  0  0  0  0  0  0  0  0
    1.9784   17.9980  -18.4430 Cl  0  0  0  0  0  0  0  0  0  0  0  0
  1  2  1  0
  2  3  2  0
  3  4  1  0
  4  5  2  0
  5  6  1  0
  6  7  2  0
  7  8  1  0
  8  9  2  0
  9 10  1  0
 10 11  1  0
 11 12  2  0
 11 13  2  0
 11 14  1  0
 14 15  1  0
 15 16  1  0
 16 17  1  0
 17 18  1  0
 18 19  1  0
 19 20  1  0
 20 21  1  1
 10 22  2  0
 22  2  1  0
 22  6  1  0
 20 14  1  0
M  END
$$$$
