
     RDKit          3D

 49 52  0  0  0  0  0  0  0  0999 V2000
  -21.8320   28.5910  -17.3931 N   0  0  0  0  0  0  0  0  0  0  0  0
  -21.5048   29.6759  -18.2252 C   0  0  0  0  0  0  0  0  0  0  0  0
  -21.9020   30.8321  -17.9649 O   0  0  0  0  0  0  0  0  0  0  0  0
  -20.6903   29.4565  -19.4108 C   0  0  0  0  0  0  0  0  0  0  0  0
  -20.2611   28.1793  -19.7225 C   0  0  0  0  0  0  0  0  0  0  0  0
  -19.4982   28.0053  -20.8405 C   0  0  0  0  0  0  0  0  0  0  0  0
  -19.1807   29.0983  -21.6190 C   0  0  0  0  0  0  0  0  0  0  0  0
  -19.6016   30.3385  -21.3104 N   0  0  0  0  0  4  0  0  0  0  0  0
  -19.2127   31.4171  -22.1937 C   0  0  2  0  0  0  0  0  0  0  0  0
  -18.4780   32.3928  -21.5677 O   0  0  0  0  0  0  0  0  0  0  0  0
  -18.4717   33.4768  -22.4044 C   0  0  2  0  0  0  0  0  0  0  0  0
  -18.4376   34.7914  -21.6514 C   0  0  0  0  0  0  0  0  0  0  0  0
  -18.4340   35.8787  -22.5148 O   0  0  0  0  0  0  0  0  0  0  0  0
  -18.4708   37.3451  -21.7134 P   0  0  0  0  0  5  0  0  0  0  0  0
  -19.2640   38.3150  -22.5636 O   0  0  0  0  0  0  0  0  0  0  0  0
  -19.3186   37.2073  -20.2354 O   0  0  0  0  0  1  0  0  0  0  0  0
  -16.9542   37.9636  -21.3612 O   0  0  0  0  0  0  0  0  0  0  0  0
  -17.0952   39.0353  -20.0428 P   0  0  0  0  0  5  0  0  0  0  0  0
  -15.7337   39.3087  -19.4230 O   0  0  0  0  0  0  0  0  0  0  0  0
  -18.0540   38.3115  -18.8581 O   0  0  0  0  0  1  0  0  0  0  0  0
  -17.8224   40.4439  -20.5788 O   0  0  0  0  0  0  0  0  0  0  0  0
  -17.1147   41.0751  -21.5751 C   0  0  0  0  0  0  0  0  0  0  0  0
  -17.7251   42.3947  -21.9801 C   0  0  1  0  0  0  0  0  0  0  0  0
  -17.7641   43.2451  -20.8701 O   0  0  0  0  0  0  0  0  0  0  0  0
  -17.9230   44.5246  -21.3978 C   0  0  1  0  0  0  0  0  0  0  0  0
  -17.4514   45.5751  -20.5544 N   0  0  0  0  0  0  0  0  0  0  0  0
  -18.2340   46.3727  -19.8301 C   0  0  0  0  0  0  0  0  0  0  0  0
  -17.4616   47.2480  -19.1618 N   0  0  0  0  0  0  0  0  0  0  0  0
  -16.1591   47.0216  -19.4513 C   0  0  0  0  0  0  0  0  0  0  0  0
  -14.9834   47.6159  -19.0495 C   0  0  0  0  0  0  0  0  0  0  0  0
  -14.9725   48.7115  -18.1431 N   0  0  0  0  0  0  0  0  0  0  0  0
  -13.8376   47.1058  -19.5641 N   0  0  0  0  0  0  0  0  0  0  0  0
  -13.8649   46.0674  -20.4256 C   0  0  0  0  0  0  0  0  0  0  0  0
  -15.0077   45.4818  -20.8227 N   0  0  0  0  0  0  0  0  0  0  0  0
  -16.1973   45.9452  -20.3438 C   0  0  0  0  0  0  0  0  0  0  0  0
  -17.3169   44.5254  -22.7767 C   0  0  2  0  0  0  0  0  0  0  0  0
  -18.1538   44.9735  -23.7542 O   0  0  0  0  0  0  0  0  0  0  0  0
  -17.6560   46.3584  -24.5427 P   0  0  0  0  0  5  0  0  0  0  0  0
  -16.1629   46.4053  -24.7625 O   0  0  0  0  0  0  0  0  0  0  0  0
  -18.5138   46.5748  -25.9820 O   0  0  0  0  0  0  0  0  0  0  0  0
  -18.0436   47.6780  -23.5449 O   0  0  0  0  0  0  0  0  0  0  0  0
  -16.7964   43.1517  -22.9081 C   0  0  2  0  0  0  0  0  0  0  0  0
  -17.0433   42.5932  -24.1856 O   0  0  0  0  0  0  0  0  0  0  0  0
  -19.6919   33.4026  -23.3054 C   0  0  1  0  0  0  0  0  0  0  0  0
  -19.3357   33.0402  -24.6063 O   0  0  0  0  0  0  0  0  0  0  0  0
  -20.4177   32.2047  -22.6750 C   0  0  1  0  0  0  0  0  0  0  0  0
  -21.1686   31.5184  -23.5980 O   0  0  0  0  0  0  0  0  0  0  0  0
  -20.3463   30.5192  -20.2217 C   0  0  0  0  0  0  0  0  0  0  0  0
  -18.2288   38.5757  -21.3757 Na  0  0  0  0  0 15  0  0  0  0  0  0
  1  2  1  0
  2  3  2  0
  2  4  1  0
  4  5  2  0
  5  6  1  0
  6  7  2  0
  7  8  1  0
  9  8  1  1
  9 10  1  0
 10 11  1  0
 11 12  1  1
 12 13  1  0
 13 14  1  0
 14 15  2  0
 14 16  1  0
 14 17  1  0
 17 18  1  0
 18 19  2  0
 18 20  1  0
 18 21  1  0
 21 22  1  0
 23 22  1  1
 23 24  1  0
 24 25  1  0
 25 26  1  1
 26 27  1  0
 27 28  2  0
 28 29  1  0
 29 30  2  0
 30 31  1  0
 30 32  1  0
 32 33  2  0
 33 34  1  0
 34 35  2  0
 25 36  1  0
 36 37  1  6
 37 38  1  0
 38 39  2  0
 38 40  1  0
 38 41  1  0
 36 42  1  0
 42 43  1  6
 11 44  1  0
 44 45  1  6
 44 46  1  0
 46 47  1  6
  8 48  2  0
 48  4  1  0
 46  9  1  0
 42 23  1  0
 35 26  1  0
 35 29  1  0
M  CHG  4   8   1  16  -1  20  -1  49   1
M  END
$$$$
