
     RDKit          3D

 37 40  0  0  0  0  0  0  0  0999 V2000
  -14.6228   38.7560  -30.1439 C   0  0  0  0  0  0  0  0  0  0  0  0
  -15.1955   40.0881  -29.6286 C   0  0  0  0  0  0  0  0  0  0  0  0
  -14.4578   40.4365  -28.3783 C   0  0  0  0  0  0  0  0  0  0  0  0
  -14.9074   41.6150  -27.8229 O   0  0  0  0  0  0  0  0  0  0  0  0
  -16.1543   41.8374  -27.2956 C   0  0  0  0  0  0  0  0  0  0  0  0
  -17.1630   40.9172  -27.1921 C   0  0  0  0  0  0  0  0  0  0  0  0
  -18.4060   41.2412  -26.6426 C   0  0  0  0  0  0  0  0  0  0  0  0
  -18.6887   42.4956  -26.1736 C   0  0  0  0  0  0  0  0  0  0  0  0
  -19.9457   42.9231  -25.5561 C   0  0  0  0  0  0  0  0  0  0  0  0
  -19.9585   42.9688  -24.0634 C   0  0  0  0  0  0  0  0  0  0  0  0
  -19.6987   41.6947  -23.3991 C   0  0  0  0  0  0  0  0  0  0  0  0
  -19.4547   40.5073  -23.9541 N   0  0  0  0  0  0  0  0  0  0  0  0
  -19.2651   39.5647  -22.9987 C   0  0  0  0  0  0  0  0  0  0  0  0
  -18.9890   38.2145  -23.0346 C   0  0  0  0  0  0  0  0  0  0  0  0
  -18.8453   37.4957  -21.8433 C   0  0  0  0  0  0  0  0  0  0  0  0
  -18.5546   36.0788  -21.8449 C   0  0  0  0  0  0  0  0  0  0  0  0
  -17.3095   35.5130  -21.8412 C   0  0  0  0  0  0  0  0  0  0  0  0
  -16.0324   36.2348  -21.8348 C   0  0  0  0  0  0  0  0  0  0  0  0
  -17.4836   34.1677  -21.8448 N   0  0  0  0  0  0  0  0  0  0  0  0
  -18.7551   33.9110  -21.8503 O   0  0  0  0  0  0  0  0  0  0  0  0
  -19.4517   35.0486  -21.8506 C   0  0  0  0  0  0  0  0  0  0  0  0
  -20.9275   35.1433  -21.8562 C   0  0  0  0  0  0  0  0  0  0  0  0
  -18.9968   38.2205  -20.6698 C   0  0  0  0  0  0  0  0  0  0  0  0
  -19.2715   39.5638  -20.6298 C   0  0  0  0  0  0  0  0  0  0  0  0
  -19.4110   40.2624  -21.8194 C   0  0  0  0  0  0  0  0  0  0  0  0
  -19.6745   41.5563  -22.0286 N   0  0  0  0  0  0  0  0  0  0  0  0
  -19.8974   42.6217  -21.0686 C   0  0  0  0  0  0  0  0  0  0  0  0
  -18.6188   43.2967  -20.6960 C   0  0  0  0  0  0  0  0  0  0  0  0
  -18.7040   44.3489  -19.7712 N   0  0  0  0  0  0  0  0  0  0  0  0
  -17.3802   44.8879  -19.5228 C   0  0  0  0  0  0  0  0  0  0  0  0
  -17.4474   45.9735  -18.4698 C   0  0  0  0  0  0  0  0  0  0  0  0
  -18.2300   47.0155  -18.9913 O   0  0  0  0  0  0  0  0  0  0  0  0
  -19.5415   46.5443  -19.0697 C   0  0  0  0  0  0  0  0  0  0  0  0
  -19.5720   45.4392  -20.1038 C   0  0  0  0  0  0  0  0  0  0  0  0
  -17.6652   43.4453  -26.2733 C   0  0  0  0  0  0  0  0  0  0  0  0
  -16.4566   43.1209  -26.8114 C   0  0  0  0  0  0  0  0  0  0  0  0
  -17.8977   41.0656  -24.0308 Cl  0  0  0  0  0  0  0  0  0  0  0  0
  1  2  1  0
  2  3  1  0
  3  4  1  0
  4  5  1  0
  5  6  2  0
  6  7  1  0
  7  8  2  0
  8  9  1  0
  9 10  1  0
 10 11  1  0
 11 12  2  0
 12 13  1  0
 13 14  2  0
 14 15  1  0
 15 16  1  0
 16 17  1  0
 17 18  1  0
 17 19  2  0
 19 20  1  0
 20 21  1  0
 21 22  1  0
 15 23  2  0
 23 24  1  0
 24 25  2  0
 25 26  1  0
 26 27  1  0
 27 28  1  0
 28 29  1  0
 29 30  1  0
 30 31  1  0
 31 32  1  0
 32 33  1  0
 33 34  1  0
  8 35  1  0
 35 36  2  0
 36  5  1  0
 26 11  1  0
 34 29  1  0
 25 13  1  0
 21 16  2  0
M  END
$$$$
