
     RDKit          3D

 31 31  0  0  0  0  0  0  0  0999 V2000
  -15.2009   22.5723  -41.3154 C   0  0  0  0  0  0  0  0  0  0  0  0
  -15.7417   21.8591  -42.5099 C   0  0  0  0  0  0  0  0  0  0  0  0
  -16.9822   21.0670  -42.2435 C   0  0  2  0  0  0  0  0  0  0  0  0
  -17.3928   20.4099  -43.5629 C   0  0  0  0  0  0  0  0  0  0  0  0
  -18.0935   21.9401  -41.7554 C   0  0  0  0  0  0  0  0  0  0  0  0
  -17.9303   23.1867  -41.6106 O   0  0  0  0  0  0  0  0  0  0  0  0
  -19.3453   21.4433  -41.4384 O   0  0  0  0  0  0  0  0  0  0  0  0
  -20.3887   22.3242  -40.9703 C   0  0  1  0  0  0  0  0  0  0  0  0
  -21.4775   22.4399  -42.0100 C   0  0  0  0  0  0  0  0  0  0  0  0
  -22.4920   23.4354  -41.4043 C   0  0  2  0  0  0  0  0  0  0  0  0
  -21.8613   24.5842  -40.9989 O   0  0  0  0  0  0  0  0  0  0  0  0
  -23.0893   22.6778  -40.2409 C   0  0  0  0  0  0  0  0  0  0  0  0
  -22.2665   21.9790  -39.4393 C   0  0  0  0  0  0  0  0  0  0  0  0
  -22.8415   21.2339  -38.3042 C   0  0  0  0  0  0  0  0  0  0  0  0
  -22.3424   20.0288  -38.0906 C   0  0  0  0  0  0  0  0  0  0  0  0
  -21.2729   19.6197  -39.0436 C   0  0  2  0  0  0  0  0  0  0  0  0
  -20.8649   18.2112  -38.8259 C   0  0  0  0  0  0  0  0  0  0  0  0
  -20.1787   20.6181  -39.1367 C   0  0  2  0  0  0  0  0  0  0  0  0
  -19.4184   20.9011  -37.9149 C   0  0  0  0  0  0  0  0  0  0  0  0
  -18.6896   19.7986  -37.2571 C   0  0  0  0  0  0  0  0  0  0  0  0
  -17.9935   20.3621  -36.0320 C   0  0  1  0  0  0  0  0  0  0  0  0
  -18.9310   20.9046  -35.1504 O   0  0  0  0  0  0  0  0  0  0  0  0
  -17.2465   19.2852  -35.2757 C   0  0  0  0  0  0  0  0  0  0  0  0
  -16.1927   18.6152  -36.0854 C   0  0  1  0  0  0  0  0  0  0  0  0
  -15.2203   19.5397  -36.5339 O   0  0  0  0  0  0  0  0  0  0  0  0
  -15.4483   17.6097  -35.2609 C   0  0  0  0  0  0  0  0  0  0  0  0
  -16.2718   16.5189  -34.7151 C   0  0  0  0  0  0  0  0  0  0  0  0
  -17.4804   16.3216  -34.8837 O   0  0  0  0  0  0  0  0  0  0  0  0
  -15.5979   15.5883  -33.9020 O   0  0  0  0  0  1  0  0  0  0  0  0
  -20.8011   21.9403  -39.6116 C   0  0  1  0  0  0  0  0  0  0  0  0
  -18.8259   20.6306  -39.1148 Na  0  0  0  0  0 15  0  0  0  0  0  0
  1  2  1  0
  2  3  1  0
  3  4  1  6
  3  5  1  0
  5  6  2  0
  5  7  1  0
  8  7  1  6
  8  9  1  0
  9 10  1  0
 10 11  1  1
 10 12  1  0
 12 13  2  0
 13 14  1  0
 14 15  2  0
 15 16  1  0
 16 17  1  1
 16 18  1  0
 18 19  1  1
 19 20  1  0
 20 21  1  0
 21 22  1  1
 21 23  1  0
 23 24  1  0
 24 25  1  1
 24 26  1  0
 26 27  1  0
 27 28  2  0
 27 29  1  0
 18 30  1  0
 30  8  1  0
 30 13  1  6
M  CHG  2  29  -1  31   1
M  END
$$$$
