
     RDKit          3D

 31 34  0  0  0  0  0  0  0  0999 V2000
  -20.7668   38.8963  -25.4332 C   0  0  0  0  0  0  0  0  0  0  0  0
  -20.3463   37.5196  -25.0953 C   0  0  0  0  0  0  0  0  0  0  0  0
  -19.9882   36.5769  -25.9375 O   0  0  0  0  0  0  0  0  0  0  0  0
  -19.6728   35.4787  -25.3028 N   0  0  0  0  0  0  0  0  0  0  0  0
  -19.8149   35.6538  -23.9640 C   0  0  0  0  0  0  0  0  0  0  0  0
  -19.6060   34.7199  -22.8677 C   0  0  0  0  0  0  0  0  0  0  0  0
  -20.5884   34.5355  -21.9136 C   0  0  0  0  0  0  0  0  0  0  0  0
  -20.3886   33.6076  -20.8777 C   0  0  0  0  0  0  0  0  0  0  0  0
  -19.2326   32.8623  -20.7772 C   0  0  0  0  0  0  0  0  0  0  0  0
  -19.0988   31.9646  -19.7514 F   0  0  0  0  0  0  0  0  0  0  0  0
  -18.2544   33.0431  -21.7209 C   0  0  0  0  0  0  0  0  0  0  0  0
  -18.4567   33.9672  -22.7466 C   0  0  0  0  0  0  0  0  0  0  0  0
  -20.2427   36.9527  -23.8523 C   0  0  0  0  0  0  0  0  0  0  0  0
  -20.5875   37.6535  -22.5723 C   0  0  0  0  0  0  0  0  0  0  0  0
  -19.7725   38.5633  -22.1675 O   0  0  0  0  0  0  0  0  0  0  0  0
  -18.9630   39.4420  -21.6567 C   0  0  0  0  0  0  0  0  0  0  0  0
  -17.6530   39.6531  -22.1698 C   0  0  0  0  0  0  0  0  0  0  0  0
  -16.8029   40.5645  -21.6433 C   0  0  0  0  0  0  0  0  0  0  0  0
  -17.2131   41.3309  -20.5567 C   0  0  0  0  0  0  0  0  0  0  0  0
  -16.2424   42.2638  -20.0388 C   0  0  0  0  0  0  0  0  0  0  0  0
  -15.2380   41.7502  -19.3955 O   0  0  0  0  0  0  0  0  0  0  0  0
  -16.2591   43.6632  -20.1558 N   0  0  0  0  0  0  0  0  0  0  0  0
  -15.4130   44.4353  -19.2311 C   0  0  0  0  0  0  0  0  0  0  0  0
  -14.3669   45.2071  -20.0583 C   0  0  0  0  0  0  0  0  0  0  0  0
  -15.3265   46.4550  -20.9111 S   0  0  0  0  0  6  0  0  0  0  0  0
  -15.0931   47.7571  -20.1902 O   0  0  0  0  0  0  0  0  0  0  0  0
  -14.9815   46.5242  -22.3627 O   0  0  0  0  0  0  0  0  0  0  0  0
  -17.0260   45.9218  -20.8027 C   0  0  0  0  0  0  0  0  0  0  0  0
  -17.0296   44.4242  -21.0961 C   0  0  0  0  0  0  0  0  0  0  0  0
  -18.4515   41.1423  -20.0589 C   0  0  0  0  0  0  0  0  0  0  0  0
  -19.2793   40.2351  -20.5937 N   0  0  0  0  0  0  0  0  0  0  0  0
  1  2  1  0
  2  3  1  0
  3  4  1  0
  4  5  2  0
  5  6  1  0
  6  7  2  0
  7  8  1  0
  8  9  2  0
  9 10  1  0
  9 11  1  0
 11 12  2  0
  5 13  1  0
 13 14  1  0
 14 15  1  0
 15 16  1  0
 16 17  2  0
 17 18  1  0
 18 19  2  0
 19 20  1  0
 20 21  2  0
 20 22  1  0
 22 23  1  0
 23 24  1  0
 24 25  1  0
 25 26  2  0
 25 27  2  0
 25 28  1  0
 28 29  1  0
 19 30  1  0
 30 31  2  0
 13  2  2  0
 31 16  1  0
 12  6  1  0
 29 22  1  0
M  END
$$$$
