
     RDKit          3D

 23 26  0  0  0  0  0  0  0  0999 V2000
  -12.1955   -4.5568  -33.9693 C   0  0  0  0  0  0  0  0  0  0  0  0
  -11.7597   -3.1359  -33.9308 C   0  0  0  0  0  0  0  0  0  0  0  0
  -10.4693   -2.7412  -33.8858 N   0  0  0  0  0  0  0  0  0  0  0  0
  -10.3970   -1.4041  -33.8589 C   0  0  0  0  0  0  0  0  0  0  0  0
   -9.3451   -0.5125  -33.8115 C   0  0  0  0  0  0  0  0  0  0  0  0
   -9.5706    0.8587  -33.7924 C   0  0  0  0  0  0  0  0  0  0  0  0
  -10.8596    1.3279  -33.8213 C   0  0  0  0  0  0  0  0  0  0  0  0
  -11.8999    0.4244  -33.8686 C   0  0  0  0  0  0  0  0  0  0  0  0
  -11.7095   -0.9417  -33.8887 C   0  0  0  0  0  0  0  0  0  0  0  0
  -12.5724   -2.0167  -33.9337 C   0  0  0  0  0  0  0  0  0  0  0  0
  -14.0609   -1.9901  -33.9757 C   0  0  0  0  0  0  0  0  0  0  0  0
  -14.5994   -1.0568  -33.0083 N   0  0  0  0  0  0  0  0  0  0  0  0
  -15.9315   -0.6832  -33.3559 C   0  0  0  0  0  0  0  0  0  0  0  0
  -16.8715   -1.8061  -32.8956 C   0  0  0  0  0  0  0  0  0  0  0  0
  -16.8342   -1.7797  -31.4626 N   0  0  0  0  0  0  0  0  0  0  0  0
  -17.9094   -2.2699  -30.6903 C   0  0  0  0  0  0  0  0  0  0  0  0
  -19.1474   -2.5535  -31.2446 C   0  0  0  0  0  0  0  0  0  0  0  0
  -20.2226   -3.0312  -30.5144 C   0  0  0  0  0  0  0  0  0  0  0  0
  -20.0266   -3.2285  -29.1588 C   0  0  0  0  0  0  0  0  0  0  0  0
  -18.7914   -2.9428  -28.6206 C   0  0  0  0  0  0  0  0  0  0  0  0
  -17.7659   -2.4813  -29.3483 N   0  0  0  0  0  0  0  0  0  0  0  0
  -15.6713   -1.2440  -30.8049 C   0  0  0  0  0  0  0  0  0  0  0  0
  -14.4397   -1.4658  -31.6568 C   0  0  0  0  0  0  0  0  0  0  0  0
  1  2  1  0
  2  3  1  0
  3  4  1  0
  4  5  2  0
  5  6  1  0
  6  7  2  0
  7  8  1  0
  8  9  2  0
  9 10  1  0
 10 11  1  0
 11 12  1  0
 12 13  1  0
 13 14  1  0
 14 15  1  0
 15 16  1  0
 16 17  2  0
 17 18  1  0
 18 19  2  0
 19 20  1  0
 20 21  2  0
 15 22  1  0
 22 23  1  0
 10  2  2  0
 23 12  1  0
  9  4  1  0
 21 16  1  0
M  END
$$$$
