
     RDKit          3D

 31 35  0  0  0  0  0  0  0  0999 V2000
  -23.6719   23.0978  -44.3895 C   0  0  0  0  0  0  0  0  0  0  0  0
  -23.3273   23.1366  -42.9714 C   0  0  0  0  0  0  0  0  0  0  0  0
  -24.3150   23.3146  -42.0305 C   0  0  0  0  0  0  0  0  0  0  0  0
  -24.1115   23.3662  -40.6965 C   0  0  0  0  0  0  0  0  0  0  0  0
  -22.8034   23.2314  -40.1967 C   0  0  0  0  0  0  0  0  0  0  0  0
  -22.6181   23.2851  -38.8676 O   0  0  0  0  0  0  0  0  0  0  0  0
  -21.9815   22.3589  -38.0805 C   0  0  0  0  0  0  0  0  0  0  0  0
  -20.7804   22.4086  -37.4862 N   0  0  0  0  0  0  0  0  0  0  0  0
  -20.5260   21.2849  -36.7982 C   0  0  0  0  0  0  0  0  0  0  0  0
  -19.4699   20.8309  -36.0291 C   0  0  0  0  0  0  0  0  0  0  0  0
  -19.5055   19.5887  -35.4318 C   0  0  0  0  0  0  0  0  0  0  0  0
  -18.1459   19.0547  -34.4711 Cl  0  0  0  0  0  0  0  0  0  0  0  0
  -20.5910   18.7519  -35.5764 C   0  0  0  0  0  0  0  0  0  0  0  0
  -20.6340   17.4212  -34.9355 C   0  0  0  0  0  0  0  0  0  0  0  0
  -20.3529   16.2760  -35.6720 C   0  0  0  0  0  0  0  0  0  0  0  0
  -20.3842   15.0167  -35.1145 C   0  0  0  0  0  0  0  0  0  0  0  0
  -20.7051   14.8646  -33.7732 C   0  0  0  0  0  0  0  0  0  0  0  0
  -20.9871   15.9822  -33.0241 C   0  0  0  0  0  0  0  0  0  0  0  0
  -21.2718   15.5786  -31.7421 C   0  0  0  0  0  0  0  0  0  0  0  0
  -21.1600   14.1896  -31.7148 C   0  0  0  0  0  0  0  0  0  0  0  0
  -20.8189   13.7970  -32.9501 N   0  0  0  0  0  0  0  0  0  0  0  0
  -20.6046   12.4173  -33.3378 C   0  0  0  0  0  0  0  0  0  0  0  0
  -20.9492   17.2422  -33.6085 C   0  0  0  0  0  0  0  0  0  0  0  0
  -21.6395   19.2077  -36.3426 C   0  0  0  0  0  0  0  0  0  0  0  0
  -21.6202   20.4607  -36.9537 C   0  0  0  0  0  0  0  0  0  0  0  0
  -22.4840   21.1284  -37.7298 N   0  0  0  0  0  0  0  0  0  0  0  0
  -21.8070   23.0543  -41.1044 C   0  0  0  0  0  0  0  0  0  0  0  0
  -22.0471   23.0045  -42.4855 C   0  0  0  0  0  0  0  0  0  0  0  0
  -20.9533   22.8136  -43.4270 C   0  0  0  0  0  0  0  0  0  0  0  0
  -21.1200   23.1188  -44.6332 O   0  0  0  0  0  0  0  0  0  0  0  0
  -19.7191   22.3063  -43.0634 O   0  0  0  0  0  0  0  0  0  0  0  0
  1  2  1  0
  2  3  2  0
  3  4  1  0
  4  5  2  0
  5  6  1  0
  6  7  1  0
  7  8  2  0
  8  9  1  0
  9 10  2  0
 10 11  1  0
 11 12  1  0
 11 13  2  0
 13 14  1  0
 14 15  2  0
 15 16  1  0
 16 17  2  0
 17 18  1  0
 18 19  1  0
 19 20  2  0
 20 21  1  0
 21 22  1  0
 18 23  2  0
 13 24  1  0
 24 25  2  0
 25 26  1  0
  5 27  1  0
 27 28  2  0
 28 29  1  0
 29 30  2  0
 29 31  1  0
 28  2  1  0
 26  7  1  0
 25  9  1  0
 23 14  1  0
 21 17  1  0
M  END
$$$$
