
     RDKit          3D

 17 19  0  0  0  0  0  0  0  0999 V2000
  -14.0773   12.3493  -28.3522 N   0  0  0  0  0  0  0  0  0  0  0  0
  -14.3393   13.2052  -29.4440 C   0  0  0  0  0  0  0  0  0  0  0  0
  -13.3227   13.7936  -30.1580 C   0  0  0  0  0  0  0  0  0  0  0  0
  -13.5860   14.6414  -31.2395 C   0  0  0  0  0  0  0  0  0  0  0  0
  -14.8743   14.9204  -31.6322 C   0  0  0  0  0  0  0  0  0  0  0  0
  -15.9128   14.3313  -30.9180 C   0  0  0  0  0  0  0  0  0  0  0  0
  -15.6320   13.4994  -29.8560 C   0  0  0  0  0  0  0  0  0  0  0  0
  -17.3074   14.6099  -31.3134 C   0  0  0  0  0  0  0  0  0  0  0  0
  -18.2274   14.0716  -30.6600 O   0  0  0  0  0  0  0  0  0  0  0  0
  -17.6376   15.4825  -32.4284 C   0  0  0  0  0  0  0  0  0  0  0  0
  -18.8058   15.7488  -32.8014 O   0  0  0  0  0  0  0  0  0  0  0  0
  -16.4907   16.0723  -33.1402 C   0  0  0  0  0  0  0  0  0  0  0  0
  -16.7652   16.9047  -34.2025 C   0  0  0  0  0  0  0  0  0  0  0  0
  -15.7140   17.4702  -34.8865 C   0  0  0  0  0  0  0  0  0  0  0  0
  -14.4320   17.2035  -34.5096 C   0  0  0  0  0  0  0  0  0  0  0  0
  -14.1207   16.3675  -33.4415 C   0  0  0  0  0  0  0  0  0  0  0  0
  -15.1848   15.8090  -32.7669 C   0  0  0  0  0  0  0  0  0  0  0  0
  1  2  1  0
  2  3  2  0
  3  4  1  0
  4  5  2  0
  5  6  1  0
  6  7  2  0
  6  8  1  0
  8  9  2  0
  8 10  1  0
 10 11  2  0
 10 12  1  0
 12 13  2  0
 13 14  1  0
 14 15  2  0
 15 16  1  0
 16 17  2  0
  7  2  1  0
 17 12  1  0
 17  5  1  0
M  END
$$$$
