
     RDKit          3D

 24 25  0  0  0  0  0  0  0  0999 V2000
  -18.0831   45.6214  -23.6592 C   0  0  0  0  0  0  0  0  0  0  0  0
  -18.8379   44.5826  -24.2548 O   0  0  0  0  0  0  0  0  0  0  0  0
  -18.7520   43.3163  -23.6957 C   0  0  0  0  0  0  0  0  0  0  0  0
  -17.8886   43.0186  -22.6748 C   0  0  0  0  0  0  0  0  0  0  0  0
  -17.7753   41.7777  -22.0963 C   0  0  0  0  0  0  0  0  0  0  0  0
  -16.7794   41.6106  -21.0350 C   0  0  0  0  0  0  0  0  0  0  0  0
  -15.5146   42.3893  -21.2439 C   0  0  0  0  0  0  0  0  0  0  0  0
  -17.3827   41.9243  -19.6985 C   0  0  0  0  0  0  0  0  0  0  0  0
  -18.6014   40.7379  -22.5815 C   0  0  0  0  0  0  0  0  0  0  0  0
  -18.4834   39.5584  -22.0149 O   0  0  0  0  0  0  0  0  0  0  0  0
  -18.1951   38.2817  -22.1443 C   0  0  0  0  0  0  0  0  0  0  0  0
  -17.3693   37.6571  -23.0615 C   0  0  0  0  0  0  0  0  0  0  0  0
  -17.1949   36.3119  -23.0388 N   0  0  0  0  0  0  0  0  0  0  0  0
  -17.7851   35.5181  -22.1619 C   0  0  0  0  0  0  0  0  0  0  0  0
  -17.6224   34.1161  -22.1146 N   0  0  0  0  0  0  0  0  0  0  0  0
  -18.5918   36.0872  -21.2584 N   0  0  0  0  0  0  0  0  0  0  0  0
  -18.8111   37.4008  -21.2198 C   0  0  0  0  0  0  0  0  0  0  0  0
  -19.6884   37.8798  -20.2205 N   0  0  0  0  0  0  0  0  0  0  0  0
  -19.4912   41.0064  -23.6203 C   0  0  0  0  0  0  0  0  0  0  0  0
  -19.5353   42.2829  -24.1399 C   0  0  0  0  0  0  0  0  0  0  0  0
  -20.6592   42.6346  -25.4569 S   0  0  0  0  0  6  0  0  0  0  0  0
  -19.7366   42.9217  -26.8688 N   0  0  0  0  0  0  0  0  0  0  0  0
  -21.5684   43.7638  -25.1182 O   0  0  0  0  0  0  0  0  0  0  0  0
  -21.5010   41.4055  -25.7026 O   0  0  0  0  0  0  0  0  0  0  0  0
  1  2  1  0
  2  3  1  0
  3  4  2  0
  4  5  1  0
  5  6  1  0
  6  7  1  0
  6  8  1  0
  5  9  2  0
  9 10  1  0
 10 11  1  0
 11 12  2  0
 12 13  1  0
 13 14  2  0
 14 15  1  0
 14 16  1  0
 16 17  2  0
 17 18  1  0
  9 19  1  0
 19 20  2  0
 20 21  1  0
 21 22  1  0
 21 23  2  0
 21 24  2  0
 20  3  1  0
 17 11  1  0
M  END
$$$$
