
     RDKit          3D

 25 26  0  0  0  0  0  0  0  0999 V2000
  -18.6759   32.9035  -20.7427 C   0  0  0  0  0  0  0  0  0  0  0  0
  -18.0374   33.5468  -21.9333 C   0  0  0  0  0  0  0  0  0  0  0  0
  -17.4587   32.4449  -22.8317 C   0  0  0  0  0  0  0  0  0  0  0  0
  -19.0521   34.1621  -22.7029 O   0  0  0  0  0  0  0  0  0  0  0  0
  -18.8190   35.1910  -23.5899 C   0  0  0  0  0  0  0  0  0  0  0  0
  -18.2630   34.8832  -24.6736 O   0  0  0  0  0  0  0  0  0  0  0  0
  -19.1700   36.6149  -23.3688 C   0  0  0  0  0  0  0  0  0  0  0  0
  -18.6091   37.4346  -24.5439 C   0  0  0  0  0  0  0  0  0  0  0  0
  -20.6563   36.8747  -23.3756 C   0  0  0  0  0  0  0  0  0  0  0  0
  -18.5908   37.0638  -22.1650 O   0  0  0  0  0  0  0  0  0  0  0  0
  -18.3902   38.3875  -21.8425 C   0  0  0  0  0  0  0  0  0  0  0  0
  -19.3927   39.1604  -21.3436 C   0  0  0  0  0  0  0  0  0  0  0  0
  -19.1660   40.4842  -21.0281 C   0  0  0  0  0  0  0  0  0  0  0  0
  -17.9100   41.0094  -21.2265 C   0  0  0  0  0  0  0  0  0  0  0  0
  -17.7158   42.4370  -20.9034 C   0  0  0  0  0  0  0  0  0  0  0  0
  -16.5480   42.8672  -20.8476 O   0  0  0  0  0  0  0  0  0  0  0  0
  -18.8927   43.2398  -20.6689 C   0  0  0  0  0  0  0  0  0  0  0  0
  -18.9970   44.0339  -19.5552 C   0  0  0  0  0  0  0  0  0  0  0  0
  -20.1408   44.8224  -19.3752 C   0  0  0  0  0  0  0  0  0  0  0  0
  -21.1639   44.8052  -20.3096 C   0  0  0  0  0  0  0  0  0  0  0  0
  -22.5861   45.8073  -20.0576 Cl  0  0  0  0  0  0  0  0  0  0  0  0
  -21.0474   44.0031  -21.4236 C   0  0  0  0  0  0  0  0  0  0  0  0
  -19.9385   43.2356  -21.6040 C   0  0  0  0  0  0  0  0  0  0  0  0
  -16.9007   40.2248  -21.7310 C   0  0  0  0  0  0  0  0  0  0  0  0
  -17.1249   38.9081  -22.0451 C   0  0  0  0  0  0  0  0  0  0  0  0
  1  2  1  0
  2  3  1  0
  2  4  1  0
  4  5  1  0
  5  6  2  0
  5  7  1  0
  7  8  1  0
  7  9  1  0
  7 10  1  0
 10 11  1  0
 11 12  2  0
 12 13  1  0
 13 14  2  0
 14 15  1  0
 15 16  2  0
 15 17  1  0
 17 18  2  0
 18 19  1  0
 19 20  2  0
 20 21  1  0
 20 22  1  0
 22 23  2  0
 14 24  1  0
 24 25  2  0
 25 11  1  0
 23 17  1  0
M  END
$$$$
