
     RDKit          3D

 29 31  0  0  0  0  0  0  0  0999 V2000
  -12.1452   -4.5931  -33.9003 C   0  0  0  0  0  0  0  0  0  0  0  0
  -11.3715   -3.2884  -33.8464 C   0  0  0  0  0  0  0  0  0  0  0  0
  -12.2914   -2.0988  -33.7810 C   0  0  1  0  0  0  0  0  0  0  0  0
  -13.0908   -2.0260  -32.6016 N   0  0  0  0  0  0  0  0  0  0  0  0
  -13.7843   -0.8746  -32.1550 C   0  0  0  0  0  0  0  0  0  0  0  0
  -15.0750   -0.4181  -32.1285 C   0  0  0  0  0  0  0  0  0  0  0  0
  -16.3395   -0.8858  -32.5523 N   0  0  0  0  0  0  0  0  0  0  0  0
  -17.4821   -0.0103  -32.6072 C   0  0  0  0  0  0  0  0  0  0  0  0
  -17.2818    1.3093  -32.2812 C   0  0  0  0  0  0  0  0  0  0  0  0
  -18.3491    2.1562  -32.3263 C   0  0  0  0  0  0  0  0  0  0  0  0
  -19.6266    1.7009  -32.6957 C   0  0  0  0  0  0  0  0  0  0  0  0
  -19.8404    0.3864  -33.0235 C   0  0  0  0  0  0  0  0  0  0  0  0
  -21.1258   -0.1495  -33.4119 C   0  0  0  0  0  0  0  0  0  0  0  0
  -22.0263   -0.1028  -32.4494 O   0  0  0  0  0  0  0  0  0  0  0  0
  -21.5603   -0.6939  -34.6059 N   0  0  0  0  0  0  0  0  0  0  0  0
  -22.8333   -1.2393  -34.9425 C   0  0  0  0  0  0  0  0  0  0  0  0
  -20.5647   -0.7233  -35.7146 C   0  0  0  0  0  0  0  0  0  0  0  0
  -18.7136   -0.4575  -32.9652 C   0  0  0  0  0  0  0  0  0  0  0  0
  -18.8754   -1.8177  -33.2917 O   0  0  0  0  0  0  0  0  0  0  0  0
  -14.6681    0.7623  -31.4949 C   0  0  0  0  0  0  0  0  0  0  0  0
  -15.2294    1.8128  -31.0703 O   0  0  0  0  0  0  0  0  0  0  0  0
  -13.3825    0.2877  -31.5313 C   0  0  0  0  0  0  0  0  0  0  0  0
  -12.2409    0.7217  -31.1491 O   0  0  0  0  0  0  0  0  0  0  0  0
  -11.4221   -0.8824  -33.8497 C   0  0  0  0  0  0  0  0  0  0  0  0
  -10.6462   -0.3352  -32.8556 C   0  0  0  0  0  0  0  0  0  0  0  0
  -10.0244    0.7746  -33.3745 C   0  0  0  0  0  0  0  0  0  0  0  0
  -10.4457    0.8689  -34.6810 C   0  0  0  0  0  0  0  0  0  0  0  0
  -10.0316    1.9202  -35.6382 C   0  0  0  0  0  0  0  0  0  0  0  0
  -11.2544   -0.1128  -34.9110 O   0  0  0  0  0  0  0  0  0  0  0  0
  1  2  1  0
  3  2  1  1
  3  4  1  0
  4  5  1  0
  5  6  2  0
  6  7  1  0
  7  8  1  0
  8  9  2  0
  9 10  1  0
 10 11  2  0
 11 12  1  0
 12 13  1  0
 13 14  2  0
 13 15  1  0
 15 16  1  0
 15 17  1  0
 12 18  2  0
 18 19  1  0
  6 20  1  0
 20 21  2  0
 20 22  1  0
 22 23  2  0
  3 24  1  0
 24 25  2  0
 25 26  1  0
 26 27  2  0
 27 28  1  0
 27 29  1  0
 22  5  1  0
 29 24  1  0
 18  8  1  0
M  END
$$$$
