
     RDKit          3D

 18 20  0  0  0  0  0  0  0  0999 V2000
  -16.3732   20.8125  -29.8074 O   0  0  0  0  0  0  0  0  0  0  0  0
  -16.1987   19.6584  -30.3086 C   0  0  0  0  0  0  0  0  0  0  0  0
  -15.1582   18.7386  -30.0521 N   0  0  0  0  0  0  0  0  0  0  0  0
  -15.3142   17.4475  -30.5866 C   0  0  0  0  0  0  0  0  0  0  0  0
  -14.4401   16.5299  -30.4190 O   0  0  0  0  0  0  0  0  0  0  0  0
  -16.5218   17.2294  -31.3334 C   0  0  0  0  0  0  0  0  0  0  0  0
  -16.9901   16.0933  -31.7647 C   0  0  0  0  0  0  0  0  0  0  0  0
  -18.2715   15.9937  -32.4286 C   0  0  0  0  0  0  0  0  0  0  0  0
  -19.0486   14.8843  -32.2408 C   0  0  0  0  0  0  0  0  0  0  0  0
  -20.2687   14.7307  -32.8751 C   0  0  0  0  0  0  0  0  0  0  0  0
  -20.7369   15.7220  -33.7293 C   0  0  0  0  0  0  0  0  0  0  0  0
  -21.9439   15.5795  -34.3502 N   0  0  0  0  0  0  0  0  0  0  0  0
  -22.3492   16.5830  -35.1674 C   0  0  0  0  0  0  0  0  0  0  0  0
  -21.5988   17.7147  -35.3855 C   0  0  0  0  0  0  0  0  0  0  0  0
  -20.4216   17.7995  -34.7487 N   0  0  0  0  0  0  0  0  0  0  0  0
  -19.9590   16.8404  -33.9226 C   0  0  0  0  0  0  0  0  0  0  0  0
  -18.7283   16.9738  -33.2723 C   0  0  0  0  0  0  0  0  0  0  0  0
  -17.2542   18.8329  -31.5175 S   0  0  0  0  0  0  0  0  0  0  0  0
  1  2  2  0
  2  3  1  0
  3  4  1  0
  4  5  2  0
  4  6  1  0
  6  7  2  0
  7  8  1  0
  8  9  2  0
  9 10  1  0
 10 11  2  0
 11 12  1  0
 12 13  2  0
 13 14  1  0
 14 15  2  0
 15 16  1  0
 16 17  2  0
  6 18  1  0
 18  2  1  0
 17  8  1  0
 16 11  1  0
M  END
$$$$
