
     RDKit          3D

 20 21  0  0  0  0  0  0  0  0999 V2000
  -18.6102   19.0301  -36.4709 C   0  0  0  0  0  0  0  0  0  0  0  0
  -18.8140   18.3489  -35.0980 C   0  0  0  0  0  0  0  0  0  0  0  0
  -17.9364   17.1184  -35.1919 C   0  0  0  0  0  0  0  0  0  0  0  0
  -18.3883   15.9816  -34.7358 C   0  0  0  0  0  0  0  0  0  0  0  0
  -17.4607   14.8268  -34.6137 C   0  0  0  0  0  0  0  0  0  0  0  0
  -17.6525   14.1259  -33.3096 C   0  0  0  0  0  0  0  0  0  0  0  0
  -19.8301   15.7888  -34.4480 C   0  0  0  0  0  0  0  0  0  0  0  0
  -20.4012   16.1687  -33.2451 C   0  0  0  0  0  0  0  0  0  0  0  0
  -21.7324   15.9723  -32.9652 C   0  0  0  0  0  0  0  0  0  0  0  0
  -22.5268   15.3841  -33.8977 C   0  0  0  0  0  0  0  0  0  0  0  0
  -23.8978   15.1545  -33.6751 O   0  0  0  0  0  0  0  0  0  0  0  0
  -22.0095   14.9874  -35.1101 C   0  0  0  0  0  0  0  0  0  0  0  0
  -20.6415   15.2006  -35.3700 C   0  0  0  0  0  0  0  0  0  0  0  0
  -16.5993   17.2738  -35.7556 C   0  0  0  0  0  0  0  0  0  0  0  0
  -16.2283   17.0345  -37.0410 C   0  0  0  0  0  0  0  0  0  0  0  0
  -14.9196   17.2584  -37.3986 C   0  0  0  0  0  0  0  0  0  0  0  0
  -13.9953   17.7150  -36.4808 C   0  0  0  0  0  0  0  0  0  0  0  0
  -12.6635   17.9392  -36.8588 O   0  0  0  0  0  0  0  0  0  0  0  0
  -14.3386   17.9671  -35.1682 C   0  0  0  0  0  0  0  0  0  0  0  0
  -15.6500   17.7385  -34.8281 C   0  0  0  0  0  0  0  0  0  0  0  0
  1  2  1  0
  2  3  1  0
  3  4  2  0
  4  5  1  0
  5  6  1  0
  4  7  1  0
  7  8  2  0
  8  9  1  0
  9 10  2  0
 10 11  1  0
 10 12  1  0
 12 13  2  0
  3 14  1  0
 14 15  2  0
 15 16  1  0
 16 17  2  0
 17 18  1  0
 17 19  1  0
 19 20  2  0
 13  7  1  0
 20 14  1  0
M  END
$$$$
