
     RDKit          3D

 31 33  0  0  0  0  0  0  0  0999 V2000
  -19.3871   33.1351  -21.3344 C   0  0  0  0  0  0  0  0  0  0  0  0
  -19.7997   34.4682  -21.5227 O   0  0  0  0  0  0  0  0  0  0  0  0
  -18.8574   35.4804  -21.6403 C   0  0  0  0  0  0  0  0  0  0  0  0
  -17.5440   35.2792  -21.3130 C   0  0  0  0  0  0  0  0  0  0  0  0
  -16.6340   36.3124  -21.4435 C   0  0  0  0  0  0  0  0  0  0  0  0
  -15.3209   36.1277  -21.1224 F   0  0  0  0  0  0  0  0  0  0  0  0
  -17.0289   37.5436  -21.8975 C   0  0  0  0  0  0  0  0  0  0  0  0
  -16.1563   38.5827  -22.0373 F   0  0  0  0  0  0  0  0  0  0  0  0
  -18.3887   37.6958  -22.2181 C   0  0  0  0  0  0  0  0  0  0  0  0
  -18.7650   39.0271  -22.6083 N   0  0  0  0  0  0  0  0  0  0  0  0
  -18.0211   40.0811  -22.0218 C   0  0  0  0  0  0  0  0  0  0  0  0
  -17.7814   40.1512  -20.6685 C   0  0  0  0  0  0  0  0  0  0  0  0
  -17.0533   41.1908  -20.1296 C   0  0  0  0  0  0  0  0  0  0  0  0
  -16.5538   42.1753  -20.9315 C   0  0  0  0  0  0  0  0  0  0  0  0
  -15.4377   43.7746  -20.1296 I   0  0  0  0  0  0  0  0  0  0  0  0
  -16.7737   42.1423  -22.3081 C   0  0  0  0  0  0  0  0  0  0  0  0
  -17.5142   41.0761  -22.8184 C   0  0  0  0  0  0  0  0  0  0  0  0
  -17.7279   41.0458  -24.1633 F   0  0  0  0  0  0  0  0  0  0  0  0
  -19.3021   36.7224  -22.1088 C   0  0  0  0  0  0  0  0  0  0  0  0
  -20.6844   36.9022  -22.3818 N   0  0  0  0  0  0  0  0  0  0  0  0
  -21.3555   36.6688  -23.9054 S   0  0  0  0  0  6  0  0  0  0  0  0
  -21.6595   35.2250  -24.1848 O   0  0  0  0  0  0  0  0  0  0  0  0
  -22.6892   37.4047  -23.9503 O   0  0  0  0  0  0  0  0  0  0  0  0
  -20.4105   37.3705  -25.2794 C   0  0  0  0  0  0  0  0  0  0  0  0
  -19.2359   36.5503  -25.5815 C   0  0  0  0  0  0  0  0  0  0  0  0
  -19.0953   35.7520  -26.7856 C   0  0  2  0  0  0  0  0  0  0  0  0
  -17.9633   35.0616  -27.0561 O   0  0  0  0  0  0  0  0  0  0  0  0
  -19.5943   36.5413  -28.0132 C   0  0  0  0  0  0  0  0  0  0  0  0
  -18.5006   37.3239  -28.4066 O   0  0  0  0  0  0  0  0  0  0  0  0
  -19.9677   38.8581  -24.9985 C   0  0  0  0  0  0  0  0  0  0  0  0
  -21.0210   38.4836  -25.9403 C   0  0  0  0  0  0  0  0  0  0  0  0
  1  2  1  0
  2  3  1  0
  3  4  2  0
  4  5  1  0
  5  6  1  0
  5  7  2  0
  7  8  1  0
  7  9  1  0
  9 10  1  0
 10 11  1  0
 11 12  2  0
 12 13  1  0
 13 14  2  0
 14 15  1  0
 14 16  1  0
 16 17  2  0
 17 18  1  0
  9 19  2  0
 19 20  1  0
 20 21  1  0
 21 22  2  0
 21 23  2  0
 21 24  1  0
 24 25  1  0
 25 26  1  0
 26 27  1  6
 26 28  1  0
 28 29  1  0
 24 30  1  0
 30 31  1  0
 19  3  1  0
 31 24  1  0
 17 11  1  0
M  END
$$$$
