
     RDKit          3D

 47 51  0  0  0  0  0  0  0  0999 V2000
  -25.2509   16.0030  -22.5207 C   0  0  0  0  0  0  0  0  0  0  0  0
  -25.3465   15.1634  -23.7696 C   0  0  0  0  0  0  0  0  0  0  0  0
  -24.4922   15.5243  -24.8057 N   0  0  0  0  0  0  0  0  0  0  0  0
  -23.1931   15.0110  -24.9189 C   0  0  0  0  0  0  0  0  0  0  0  0
  -22.8700   14.0342  -23.8226 C   0  0  0  0  0  0  0  0  0  0  0  0
  -24.7776   16.7323  -25.5491 C   0  0  0  0  0  0  0  0  0  0  0  0
  -25.7852   16.4205  -26.5976 C   0  0  0  0  0  0  0  0  0  0  0  0
  -26.2632   17.5146  -27.3887 N   0  0  0  0  0  0  0  0  0  0  0  0
  -25.4917   17.7893  -28.6028 C   0  0  0  0  0  0  0  0  0  0  0  0
  -25.5381   16.7554  -29.6434 C   0  0  0  0  0  0  0  0  0  0  0  0
  -26.4202   15.7033  -29.6961 C   0  0  0  0  0  0  0  0  0  0  0  0
  -26.4474   14.7738  -30.7397 C   0  0  0  0  0  0  0  0  0  0  0  0
  -25.5650   14.8816  -31.7843 C   0  0  0  0  0  0  0  0  0  0  0  0
  -25.5909   13.9180  -32.8849 C   0  0  0  0  0  0  0  0  0  0  0  0
  -25.3396   12.5789  -32.6767 C   0  0  0  0  0  0  0  0  0  0  0  0
  -25.3646   11.6918  -33.7236 C   0  0  0  0  0  0  0  0  0  0  0  0
  -25.6391   12.0905  -35.0211 C   0  0  0  0  0  0  0  0  0  0  0  0
  -25.6549   11.1060  -36.1136 C   0  0  0  0  0  0  0  0  0  0  0  0
  -25.3009    9.8748  -35.5834 F   0  0  0  0  0  0  0  0  0  0  0  0
  -26.8716   11.0699  -36.7630 F   0  0  0  0  0  0  0  0  0  0  0  0
  -24.7024   11.4387  -37.0425 F   0  0  0  0  0  0  0  0  0  0  0  0
  -25.8922   13.4288  -35.2409 C   0  0  0  0  0  0  0  0  0  0  0  0
  -25.8647   14.3115  -34.1829 C   0  0  0  0  0  0  0  0  0  0  0  0
  -24.6690   15.9312  -31.7517 C   0  0  0  0  0  0  0  0  0  0  0  0
  -24.6403   16.8466  -30.7268 C   0  0  0  0  0  0  0  0  0  0  0  0
  -27.3395   18.3729  -27.1355 C   0  0  0  0  0  0  0  0  0  0  0  0
  -28.0659   18.0168  -26.0992 O   0  0  0  0  0  0  0  0  0  0  0  0
  -27.8523   19.5732  -27.7548 C   0  0  0  0  0  0  0  0  0  0  0  0
  -29.0561   20.1845  -27.3797 N   0  0  0  0  0  0  0  0  0  0  0  0
  -30.1918   19.4470  -27.2320 C   0  0  0  0  0  0  0  0  0  0  0  0
  -30.1970   17.6782  -27.5793 S   0  0  0  0  0  0  0  0  0  0  0  0
  -31.2929   16.8921  -26.3708 C   0  0  0  0  0  0  0  0  0  0  0  0
  -31.3814   15.4486  -26.7791 C   0  0  0  0  0  0  0  0  0  0  0  0
  -32.3599   14.9944  -27.6382 C   0  0  0  0  0  0  0  0  0  0  0  0
  -32.3710   13.6393  -27.9655 C   0  0  0  0  0  0  0  0  0  0  0  0
  -31.4132   12.7921  -27.4286 C   0  0  0  0  0  0  0  0  0  0  0  0
  -31.4303   11.4774  -27.7517 F   0  0  0  0  0  0  0  0  0  0  0  0
  -30.4416   13.2568  -26.5723 C   0  0  0  0  0  0  0  0  0  0  0  0
  -30.4194   14.6128  -26.2362 C   0  0  0  0  0  0  0  0  0  0  0  0
  -31.3338   20.0021  -26.8203 N   0  0  0  0  0  0  0  0  0  0  0  0
  -31.4612   21.3209  -26.5190 C   0  0  0  0  0  0  0  0  0  0  0  0
  -32.5551   21.8126  -26.1335 O   0  0  0  0  0  0  0  0  0  0  0  0
  -30.3114   22.0692  -26.6676 C   0  0  0  0  0  0  0  0  0  0  0  0
  -29.1201   21.5166  -27.0918 C   0  0  0  0  0  0  0  0  0  0  0  0
  -28.1032   22.6258  -27.1016 C   0  0  0  0  0  0  0  0  0  0  0  0
  -28.6572   23.5870  -26.0417 C   0  0  0  0  0  0  0  0  0  0  0  0
  -30.1312   23.5402  -26.3972 C   0  0  0  0  0  0  0  0  0  0  0  0
  1  2  1  0
  2  3  1  0
  3  4  1  0
  4  5  1  0
  3  6  1  0
  6  7  1  0
  7  8  1  0
  8  9  1  0
  9 10  1  0
 10 11  2  0
 11 12  1  0
 12 13  2  0
 13 14  1  0
 14 15  2  0
 15 16  1  0
 16 17  2  0
 17 18  1  0
 18 19  1  0
 18 20  1  0
 18 21  1  0
 17 22  1  0
 22 23  2  0
 13 24  1  0
 24 25  2  0
  8 26  1  0
 26 27  2  0
 26 28  1  0
 28 29  1  0
 29 30  1  0
 30 31  1  0
 31 32  1  0
 32 33  1  0
 33 34  2  0
 34 35  1  0
 35 36  2  0
 36 37  1  0
 36 38  1  0
 38 39  2  0
 30 40  2  0
 40 41  1  0
 41 42  2  0
 41 43  1  0
 43 44  2  0
 44 45  1  0
 45 46  1  0
 46 47  1  0
 25 10  1  0
 44 29  1  0
 23 14  1  0
 39 33  1  0
 47 43  1  0
M  END
$$$$
