
     RDKit          3D

 24 26  0  0  0  0  0  0  0  0999 V2000
  -16.8197   -2.8154  -35.1312 C   0  0  0  0  0  0  0  0  0  0  0  0
  -17.7335   -2.1618  -34.2901 O   0  0  0  0  0  0  0  0  0  0  0  0
  -17.9856   -0.8093  -34.4606 C   0  0  0  0  0  0  0  0  0  0  0  0
  -17.9682   -0.2556  -35.7353 C   0  0  0  0  0  0  0  0  0  0  0  0
  -18.2119    1.0722  -35.9245 C   0  0  0  0  0  0  0  0  0  0  0  0
  -18.4719    1.8344  -34.8267 C   0  0  0  0  0  0  0  0  0  0  0  0
  -18.4976    1.3304  -33.5684 C   0  0  0  0  0  0  0  0  0  0  0  0
  -18.2482   -0.0332  -33.3672 C   0  0  0  0  0  0  0  0  0  0  0  0
  -18.3096   -0.6011  -31.7355 S   0  0  0  0  0  6  0  0  0  0  0  0
  -19.4824    0.0320  -31.0215 O   0  0  0  0  0  0  0  0  0  0  0  0
  -18.6232   -2.1001  -31.7739 O   0  0  0  0  0  0  0  0  0  0  0  0
  -16.8918   -0.4156  -30.8397 N   0  0  0  0  0  0  0  0  0  0  0  0
  -15.6152   -0.2800  -31.4233 C   0  0  0  0  0  0  0  0  0  0  0  0
  -14.8797    0.8660  -31.3601 C   0  0  0  0  0  0  0  0  0  0  0  0
  -13.6391    0.8734  -31.9979 C   0  0  0  0  0  0  0  0  0  0  0  0
  -13.1371   -0.2223  -32.6814 C   0  0  0  0  0  0  0  0  0  0  0  0
  -13.8910   -1.3658  -32.7349 C   0  0  0  0  0  0  0  0  0  0  0  0
  -15.1271   -1.4087  -32.1128 C   0  0  0  0  0  0  0  0  0  0  0  0
  -13.4551   -2.5768  -33.4294 C   0  0  0  0  0  0  0  0  0  0  0  0
  -12.1736   -2.4932  -34.0579 N   0  0  0  0  0  0  0  0  0  0  0  0
  -11.6581   -3.6831  -34.7840 C   0  0  0  0  0  0  0  0  0  0  0  0
  -11.3926   -1.3203  -34.0071 C   0  0  0  0  0  0  0  0  0  0  0  0
  -10.2677   -1.3382  -34.5948 O   0  0  0  0  0  0  0  0  0  0  0  0
  -11.8690   -0.1854  -33.3218 N   0  0  0  0  0  0  0  0  0  0  0  0
  1  2  1  0
  2  3  1  0
  3  4  2  0
  4  5  1  0
  5  6  2  0
  6  7  1  0
  7  8  2  0
  8  9  1  0
  9 10  2  0
  9 11  2  0
  9 12  1  0
 12 13  1  0
 13 14  2  0
 14 15  1  0
 15 16  2  0
 16 17  1  0
 17 18  2  0
 17 19  1  0
 19 20  1  0
 20 21  1  0
 20 22  1  0
 22 23  2  0
 22 24  1  0
  8  3  1  0
 18 13  1  0
 24 16  1  0
M  END
$$$$
