
     RDKit          3D

 22 24  0  0  0  0  0  0  0  0999 V2000
  -21.2424   39.5411  -24.3898 C   0  0  0  0  0  0  0  0  0  0  0  0
  -19.7283   39.7936  -24.4051 C   0  0  1  0  0  0  0  0  0  0  0  0
  -19.0485   38.9770  -23.3877 C   0  0  0  0  0  0  0  0  0  0  0  0
  -19.0709   37.6055  -23.3118 C   0  0  0  0  0  0  0  0  0  0  0  0
  -18.3822   36.9152  -22.3054 C   0  0  0  0  0  0  0  0  0  0  0  0
  -18.4294   35.4804  -22.2586 C   0  0  0  0  0  0  0  0  0  0  0  0
  -18.0750   34.7002  -23.3440 C   0  0  0  0  0  0  0  0  0  0  0  0
  -18.1416   33.3605  -23.2346 N   0  0  0  0  0  0  0  0  0  0  0  0
  -18.5336   32.7319  -22.1292 C   0  0  0  0  0  0  0  0  0  0  0  0
  -18.8824   33.4586  -21.0638 N   0  0  0  0  0  0  0  0  0  0  0  0
  -18.8330   34.8145  -21.1220 C   0  0  0  0  0  0  0  0  0  0  0  0
  -17.6578   37.6065  -21.3575 C   0  0  0  0  0  0  0  0  0  0  0  0
  -17.0097   36.8915  -20.4053 F   0  0  0  0  0  0  0  0  0  0  0  0
  -17.6182   38.9850  -21.4104 C   0  0  0  0  0  0  0  0  0  0  0  0
  -18.3052   39.6484  -22.4123 C   0  0  0  0  0  0  0  0  0  0  0  0
  -18.2610   40.9950  -22.4563 F   0  0  0  0  0  0  0  0  0  0  0  0
  -19.1466   39.5437  -25.7482 C   0  0  0  0  0  0  0  0  0  0  0  0
  -19.9991   40.0272  -26.9063 C   0  0  0  0  0  0  0  0  0  0  0  0
  -20.7762   41.6153  -26.5650 S   0  0  0  0  0  0  0  0  0  0  0  0
  -20.2643   42.1370  -24.9354 C   0  0  0  0  0  0  0  0  0  0  0  0
  -20.4910   43.3381  -24.4984 N   0  0  0  0  0  0  0  0  0  0  0  0
  -19.5946   41.2222  -24.0993 N   0  0  0  0  0  0  0  0  0  0  0  0
  2  1  1  6
  2  3  1  0
  3  4  2  0
  4  5  1  0
  5  6  1  0
  6  7  2  0
  7  8  1  0
  8  9  2  0
  9 10  1  0
 10 11  2  0
  5 12  2  0
 12 13  1  0
 12 14  1  0
 14 15  2  0
 15 16  1  0
  2 17  1  0
 17 18  1  0
 18 19  1  0
 19 20  1  0
 20 21  2  0
 20 22  1  0
 22  2  1  0
 15  3  1  0
 11  6  1  0
M  END
$$$$
