
     RDKit          3D

 36 37  0  0  0  0  0  0  0  0999 V2000
  -16.0685   47.6149  -18.4121 C   0  0  0  0  0  0  0  0  0  0  0  0
  -16.2323   46.4343  -19.3357 C   0  0  0  0  0  0  0  0  0  0  0  0
  -16.1847   46.8228  -20.7806 C   0  0  0  0  0  0  0  0  0  0  0  0
  -16.3427   45.6519  -21.6060 N   0  0  0  0  0  0  0  0  0  0  0  0
  -16.3332   44.3304  -21.0692 C   0  0  0  0  0  0  0  0  0  0  0  0
  -15.7852   44.1404  -19.8117 C   0  0  0  0  0  0  0  0  0  0  0  0
  -15.7641   42.8760  -19.2813 C   0  0  0  0  0  0  0  0  0  0  0  0
  -16.2743   41.7949  -19.9716 C   0  0  0  0  0  0  0  0  0  0  0  0
  -16.8207   41.9916  -21.2309 C   0  0  0  0  0  0  0  0  0  0  0  0
  -16.8569   43.2433  -21.7870 C   0  0  0  0  0  0  0  0  0  0  0  0
  -17.4643   43.4977  -23.3958 S   0  0  0  0  0  6  0  0  0  0  0  0
  -18.3355   44.7359  -23.4644 O   0  0  0  0  0  0  0  0  0  0  0  0
  -16.2225   43.7441  -24.2579 O   0  0  0  0  0  0  0  0  0  0  0  0
  -18.3067   42.1279  -23.9721 N   0  0  0  0  0  0  0  0  0  0  0  0
  -19.4625   41.8410  -23.1988 C   0  0  1  0  0  0  0  0  0  0  0  0
  -20.6308   42.2967  -24.1199 C   0  0  0  0  0  0  0  0  0  0  0  0
  -21.9265   42.0379  -23.4550 C   0  0  0  0  0  0  0  0  0  0  0  0
  -23.1049   42.5334  -24.3117 C   0  0  0  0  0  0  0  0  0  0  0  0
  -24.3187   42.2322  -23.5953 N   0  0  0  0  0  0  0  0  0  0  0  0
  -24.7021   42.8623  -22.3962 C   0  0  0  0  0  0  0  0  0  0  0  0
  -23.9331   43.7807  -21.9334 N   0  0  0  0  0  0  0  0  0  0  0  0
  -25.8859   42.5358  -21.6870 N   0  0  0  0  0  0  0  0  0  0  0  0
  -19.6730   40.5105  -22.6718 C   0  0  0  0  0  0  0  0  0  0  0  0
  -20.6328   40.4227  -21.7999 O   0  0  0  0  0  0  0  0  0  0  0  0
  -19.0255   39.2938  -22.9349 N   0  0  0  0  0  0  0  0  0  0  0  0
  -17.9693   39.1684  -23.8840 C   0  0  0  0  0  0  0  0  0  0  0  0
  -16.7729   38.4181  -23.3258 C   0  0  0  0  0  0  0  0  0  0  0  0
  -17.2661   37.1023  -22.7710 C   0  0  1  0  0  0  0  0  0  0  0  0
  -16.1176   36.2745  -22.2239 C   0  0  0  0  0  0  0  0  0  0  0  0
  -18.2565   37.3954  -21.6824 C   0  0  0  0  0  0  0  0  0  0  0  0
  -19.4673   38.1137  -22.1702 C   0  0  2  0  0  0  0  0  0  0  0  0
  -20.3751   37.2629  -22.9680 C   0  0  0  0  0  0  0  0  0  0  0  0
  -20.8592   36.1883  -22.5429 O   0  0  0  0  0  0  0  0  0  0  0  0
  -20.7524   37.6193  -24.2713 O   0  0  0  0  0  0  0  0  0  0  0  0
  -15.2431   45.3379  -19.0788 C   0  0  0  0  0  0  0  0  0  0  0  0
  -19.0699   42.0139  -22.1486 O   0  0  0  0  0  0  0  0  0  0  0  0
  1  2  1  0
  2  3  1  0
  3  4  1  0
  4  5  1  0
  5  6  2  0
  6  7  1  0
  7  8  2  0
  8  9  1  0
  9 10  2  0
 10 11  1  0
 11 12  2  0
 11 13  2  0
 11 14  1  0
 14 15  1  0
 15 16  1  6
 16 17  1  0
 17 18  1  0
 18 19  1  0
 19 20  1  0
 20 21  2  0
 20 22  1  0
 15 23  1  0
 23 24  2  0
 23 25  1  0
 25 26  1  0
 26 27  1  0
 27 28  1  0
 28 29  1  1
 28 30  1  0
 30 31  1  0
 31 32  1  6
 32 33  2  0
 32 34  1  0
  6 35  1  0
 35  2  1  0
 10  5  1  0
 31 25  1  0
M  END
$$$$
