
     RDKit          3D

 14 14  0  0  0  0  0  0  0  0999 V2000
  -17.9205   42.2025  -22.9396 N   0  0  0  0  0  0  0  0  0  0  0  0
  -17.9348   41.1160  -22.5323 C   0  0  0  0  0  0  0  0  0  0  0  0
  -17.9520   39.7829  -22.0072 C   0  0  0  0  0  0  0  0  0  0  0  0
  -17.9393   39.5301  -20.5899 C   0  0  0  0  0  0  0  0  0  0  0  0
  -17.9226   39.3274  -19.4369 N   0  0  0  0  0  0  0  0  0  0  0  0
  -17.9805   38.7790  -22.8464 C   0  0  0  0  0  0  0  0  0  0  0  0
  -18.2902   37.3929  -22.5106 C   0  0  0  0  0  0  0  0  0  0  0  0
  -17.2964   36.5168  -22.0539 C   0  0  0  0  0  0  0  0  0  0  0  0
  -17.5673   35.1973  -21.7470 C   0  0  0  0  0  0  0  0  0  0  0  0
  -18.8619   34.6909  -21.8863 C   0  0  0  0  0  0  0  0  0  0  0  0
  -19.1555   33.3738  -21.5853 O   0  0  0  0  0  0  0  0  0  0  0  0
  -19.8452   35.5232  -22.3290 C   0  0  0  0  0  0  0  0  0  0  0  0
  -21.1341   35.0400  -22.4742 O   0  0  0  0  0  0  0  0  0  0  0  0
  -19.5483   36.8511  -22.6322 C   0  0  0  0  0  0  0  0  0  0  0  0
  1  2  3  0
  2  3  1  0
  3  4  1  0
  4  5  3  0
  3  6  2  3
  6  7  1  0
  7  8  2  0
  8  9  1  0
  9 10  2  0
 10 11  1  0
 10 12  1  0
 12 13  1  0
 12 14  2  0
 14  7  1  0
M  END
$$$$
