
     RDKit          3D

 16 17  0  0  0  0  0  0  0  0999 V2000
  -19.8392   35.4222  -23.0944 C   0  0  0  0  0  0  0  0  0  0  0  0
  -18.4558   35.3434  -22.5364 C   0  0  0  0  0  0  0  0  0  0  0  0
  -17.7375   36.4538  -22.5094 C   0  0  0  0  0  0  0  0  0  0  0  0
  -18.2458   37.7256  -23.0844 C   0  0  0  0  0  0  0  0  0  0  0  0
  -17.2317   38.7343  -23.1902 N   0  0  0  0  0  0  0  0  0  0  0  0
  -17.1489   39.7330  -22.2028 C   0  0  0  0  0  0  0  0  0  0  0  0
  -16.3773   40.8319  -22.3394 N   0  0  0  0  0  0  0  0  0  0  0  0
  -16.3157   41.7812  -21.3701 C   0  0  0  0  0  0  0  0  0  0  0  0
  -17.0020   41.6999  -20.2295 N   0  0  0  0  0  0  0  0  0  0  0  0
  -17.7896   40.6161  -20.0471 C   0  0  0  0  0  0  0  0  0  0  0  0
  -18.5831   40.2833  -19.0000 N   0  0  0  0  0  0  0  0  0  0  0  0
  -19.1489   39.1242  -19.3018 C   0  0  0  0  0  0  0  0  0  0  0  0
  -18.7210   38.7227  -20.5275 N   0  0  0  0  0  0  0  0  0  0  0  0
  -17.8656   39.6461  -21.0141 C   0  0  0  0  0  0  0  0  0  0  0  0
  -17.9234   34.0347  -22.0298 C   0  0  0  0  0  0  0  0  0  0  0  0
  -18.8183   32.9993  -22.2086 O   0  0  0  0  0  0  0  0  0  0  0  0
  1  2  1  0
  2  3  2  0
  3  4  1  0
  4  5  1  0
  5  6  1  0
  6  7  2  0
  7  8  1  0
  8  9  2  0
  9 10  1  0
 10 11  1  0
 11 12  1  0
 12 13  2  0
 13 14  1  0
  2 15  1  0
 15 16  1  0
 14  6  1  0
 14 10  2  0
M  END
$$$$
