
     RDKit          3D

 13 14  0  0  0  0  0  0  0  0999 V2000
  -18.1404   40.7872  -19.3212 S   0  0  0  0  0  0  0  0  0  0  0  0
  -18.2164   40.0770  -20.9799 C   0  0  0  0  0  0  0  0  0  0  0  0
  -18.3670   40.7378  -22.1397 N   0  0  0  0  0  0  0  0  0  0  0  0
  -18.3701   39.8353  -23.1063 N   0  0  0  0  0  0  0  0  0  0  0  0
  -18.2240   38.6167  -22.5763 C   0  0  0  0  0  0  0  0  0  0  0  0
  -18.1723   37.3209  -23.2795 C   0  0  0  0  0  0  0  0  0  0  0  0
  -18.0094   37.2375  -24.6246 C   0  0  0  0  0  0  0  0  0  0  0  0
  -17.9700   35.9729  -25.2212 C   0  0  0  0  0  0  0  0  0  0  0  0
  -18.0924   34.8145  -24.4758 C   0  0  0  0  0  0  0  0  0  0  0  0
  -18.2546   34.9289  -23.1289 C   0  0  0  0  0  0  0  0  0  0  0  0
  -18.2933   36.1596  -22.5459 C   0  0  0  0  0  0  0  0  0  0  0  0
  -18.5044   36.3010  -20.7953 Cl  0  0  0  0  0  0  0  0  0  0  0  0
  -18.1350   38.8070  -21.2934 O   0  0  0  0  0  0  0  0  0  0  0  0
  1  2  1  0
  2  3  2  0
  3  4  1  0
  4  5  2  0
  5  6  1  0
  6  7  2  0
  7  8  1  0
  8  9  2  0
  9 10  1  0
 10 11  2  0
 11 12  1  0
  5 13  1  0
 13  2  1  0
 11  6  1  0
M  END
$$$$
