
     RDKit          3D

 19 19  0  0  0  0  0  0  0  0999 V2000
  -29.8036   16.7776  -27.4525 C   0  0  0  0  0  0  0  0  0  0  0  0
  -31.1658   16.3085  -26.9661 C   0  0  0  0  0  0  0  0  0  0  0  0
  -31.6665   15.1721  -27.5693 O   0  0  0  0  0  0  0  0  0  0  0  0
  -31.8170   16.9352  -26.0435 C   0  0  0  0  0  0  0  0  0  0  0  0
  -31.1937   18.2048  -25.6165 C   0  0  0  0  0  0  0  0  0  0  0  0
  -30.7017   19.1945  -25.2624 N   0  0  0  0  0  0  0  0  0  0  0  0
  -33.0603   16.5216  -25.4107 C   0  0  0  0  0  0  0  0  0  0  0  0
  -33.9899   17.4118  -25.3594 O   0  0  0  0  0  0  0  0  0  0  0  0
  -33.3478   15.2716  -24.8585 N   0  0  0  0  0  0  0  0  0  0  0  0
  -34.5610   14.8339  -24.2662 C   0  0  0  0  0  0  0  0  0  0  0  0
  -35.7536   14.9324  -24.9917 C   0  0  0  0  0  0  0  0  0  0  0  0
  -36.9684   14.5281  -24.4826 C   0  0  0  0  0  0  0  0  0  0  0  0
  -37.0605   14.0068  -23.2307 C   0  0  0  0  0  0  0  0  0  0  0  0
  -38.3565   13.5624  -22.6551 C   0  0  0  0  0  0  0  0  0  0  0  0
  -38.5684   12.2470  -23.0166 F   0  0  0  0  0  0  0  0  0  0  0  0
  -39.3774   14.3277  -23.1334 F   0  0  0  0  0  0  0  0  0  0  0  0
  -38.2886   13.6347  -21.2711 F   0  0  0  0  0  0  0  0  0  0  0  0
  -35.9092   13.8970  -22.4938 C   0  0  0  0  0  0  0  0  0  0  0  0
  -34.6716   14.3116  -23.0192 C   0  0  0  0  0  0  0  0  0  0  0  0
  1  2  1  0
  2  3  1  0
  2  4  2  0
  4  5  1  0
  5  6  3  0
  4  7  1  0
  7  8  2  0
  7  9  1  0
  9 10  1  0
 10 11  2  0
 11 12  1  0
 12 13  2  0
 13 14  1  0
 14 15  1  0
 14 16  1  0
 14 17  1  0
 13 18  1  0
 18 19  2  0
 19 10  1  0
M  END
$$$$
