
     RDKit          3D

 43 47  0  0  0  0  0  0  0  0999 V2000
  -22.3488   24.3253  -28.1816 C   0  0  0  0  0  0  0  0  0  0  0  0
  -22.3771   23.0885  -28.8267 O   0  0  0  0  0  0  0  0  0  0  0  0
  -23.2438   22.7609  -29.8492 C   0  0  0  0  0  0  0  0  0  0  0  0
  -24.3238   21.9186  -29.5827 C   0  0  0  0  0  0  0  0  0  0  0  0
  -25.2451   21.5250  -30.5142 C   0  0  0  0  0  0  0  0  0  0  0  0
  -26.3440   20.6685  -30.2987 N   0  0  0  0  0  0  0  0  0  0  0  0
  -26.6788   20.0696  -29.0653 C   0  0  0  0  0  0  0  0  0  0  0  0
  -25.9721   20.3033  -27.9322 N   0  0  0  0  0  0  0  0  0  0  0  0
  -26.2552   19.7601  -26.7431 C   0  0  0  0  0  0  0  0  0  0  0  0
  -25.5030   20.0320  -25.6054 C   0  0  0  0  0  0  0  0  0  0  0  0
  -25.7920   19.4757  -24.3709 C   0  0  0  0  0  0  0  0  0  0  0  0
  -26.8669   18.6177  -24.2600 C   0  0  0  0  0  0  0  0  0  0  0  0
  -27.6124   18.3473  -25.3848 C   0  0  0  0  0  0  0  0  0  0  0  0
  -27.3282   18.8991  -26.6158 C   0  0  0  0  0  0  0  0  0  0  0  0
  -28.0379   18.6553  -27.7208 N   0  0  0  0  0  0  0  0  0  0  0  0
  -27.7475   19.2132  -28.9426 C   0  0  0  0  0  0  0  0  0  0  0  0
  -28.5643   18.8917  -30.0549 N   0  0  0  0  0  0  0  0  0  0  0  0
  -30.2335   19.3448  -30.1317 S   0  0  0  0  0  6  0  0  0  0  0  0
  -30.7175   19.2009  -31.5334 O   0  0  0  0  0  0  0  0  0  0  0  0
  -30.3441   20.7755  -29.6728 O   0  0  0  0  0  0  0  0  0  0  0  0
  -31.1564   18.2798  -29.1130 C   0  0  0  0  0  0  0  0  0  0  0  0
  -31.1543   18.4082  -27.7549 C   0  0  0  0  0  0  0  0  0  0  0  0
  -31.8726   17.5777  -26.9102 C   0  0  0  0  0  0  0  0  0  0  0  0
  -32.6314   16.5704  -27.4244 C   0  0  0  0  0  0  0  0  0  0  0  0
  -33.3980   15.6898  -26.6532 N   0  0  0  0  0  0  0  0  0  0  0  0
  -32.9830   14.9583  -25.5292 C   0  0  0  0  0  0  0  0  0  0  0  0
  -31.9105   15.2716  -24.9527 O   0  0  0  0  0  0  0  0  0  0  0  0
  -33.7422   13.8320  -24.9795 C   0  0  0  0  0  0  0  0  0  0  0  0
  -34.8391   13.3247  -25.6637 C   0  0  0  0  0  0  0  0  0  0  0  0
  -35.5753   12.2665  -25.1769 C   0  0  0  0  0  0  0  0  0  0  0  0
  -35.2396   11.6680  -23.9736 C   0  0  0  0  0  0  0  0  0  0  0  0
  -36.0426   10.5226  -23.4547 C   0  0  0  0  0  0  0  0  0  0  0  0
  -34.1576   12.1563  -23.2823 C   0  0  0  0  0  0  0  0  0  0  0  0
  -33.7888   11.5927  -22.0843 O   0  0  0  0  0  0  0  0  0  0  0  0
  -34.5107   11.7518  -20.8817 C   0  0  0  0  0  0  0  0  0  0  0  0
  -33.4235   13.2353  -23.7995 C   0  0  0  0  0  0  0  0  0  0  0  0
  -32.6353   16.4345  -28.8286 C   0  0  0  0  0  0  0  0  0  0  0  0
  -31.9200   17.2636  -29.6495 C   0  0  0  0  0  0  0  0  0  0  0  0
  -25.0508   22.0239  -31.7965 C   0  0  0  0  0  0  0  0  0  0  0  0
  -24.0080   22.8569  -32.1213 C   0  0  0  0  0  0  0  0  0  0  0  0
  -23.9258   23.2874  -33.4396 O   0  0  0  0  0  0  0  0  0  0  0  0
  -24.8913   24.0600  -34.0876 C   0  0  0  0  0  0  0  0  0  0  0  0
  -23.1192   23.2140  -31.1449 C   0  0  0  0  0  0  0  0  0  0  0  0
  1  2  1  0
  2  3  1  0
  3  4  2  0
  4  5  1  0
  5  6  1  0
  6  7  1  0
  7  8  2  0
  8  9  1  0
  9 10  2  0
 10 11  1  0
 11 12  2  0
 12 13  1  0
 13 14  2  0
 14 15  1  0
 15 16  2  0
 16 17  1  0
 17 18  1  0
 18 19  2  0
 18 20  2  0
 18 21  1  0
 21 22  2  0
 22 23  1  0
 23 24  2  0
 24 25  1  0
 25 26  1  0
 26 27  2  0
 26 28  1  0
 28 29  2  0
 29 30  1  0
 30 31  2  0
 31 32  1  0
 31 33  1  0
 33 34  1  0
 34 35  1  0
 33 36  2  0
 24 37  1  0
 37 38  2  0
  5 39  2  0
 39 40  1  0
 40 41  1  0
 41 42  1  0
 40 43  2  0
 43  3  1  0
 16  7  1  0
 38 21  1  0
 14  9  1  0
 36 28  1  0
M  END
$$$$
