
     RDKit          3D

 21 21  0  0  0  0  0  0  0  0999 V2000
  -22.1446   22.8317  -45.5238 N   0  0  0  0  0  0  0  0  0  0  0  0
  -21.6274   22.6208  -44.5047 C   0  0  0  0  0  0  0  0  0  0  0  0
  -20.9953   22.3661  -43.2512 C   0  0  0  0  0  0  0  0  0  0  0  0
  -19.8039   21.7093  -43.1782 C   0  0  0  0  0  0  0  0  0  0  0  0
  -19.1972   21.4649  -41.9729 C   0  0  0  0  0  0  0  0  0  0  0  0
  -17.9504   20.7785  -41.8853 N   0  0  0  0  0  0  0  0  0  0  0  0
  -16.9522   20.8185  -42.8644 C   0  0  0  0  0  0  0  0  0  0  0  0
  -17.1621   21.4273  -43.9298 O   0  0  0  0  0  0  0  0  0  0  0  0
  -15.6643   20.1430  -42.6303 C   0  0  0  0  0  0  0  0  0  0  0  0
  -15.4160   19.5714  -41.5378 O   0  0  0  0  0  0  0  0  0  0  0  0
  -14.6902   20.1237  -43.6196 O   0  0  0  0  0  0  0  0  0  0  0  0
  -19.8161   21.8978  -40.8218 C   0  0  0  0  0  0  0  0  0  0  0  0
  -19.0153   21.5704  -39.2941 Cl  0  0  0  0  0  0  0  0  0  0  0  0
  -21.0411   22.5791  -40.8198 C   0  0  0  0  0  0  0  0  0  0  0  0
  -21.5798   22.9736  -39.5892 N   0  0  0  0  0  0  0  0  0  0  0  0
  -22.8664   23.4573  -39.3169 C   0  0  0  0  0  0  0  0  0  0  0  0
  -23.6583   23.6097  -40.2630 O   0  0  0  0  0  0  0  0  0  0  0  0
  -23.2956   23.7843  -37.9568 C   0  0  0  0  0  0  0  0  0  0  0  0
  -22.8525   23.0959  -37.0158 O   0  0  0  0  0  0  0  0  0  0  0  0
  -24.1669   24.8217  -37.6932 O   0  0  0  0  0  0  0  0  0  0  0  0
  -21.5818   22.7840  -42.0613 C   0  0  0  0  0  0  0  0  0  0  0  0
  1  2  3  0
  2  3  1  0
  3  4  2  0
  4  5  1  0
  5  6  1  0
  6  7  1  0
  7  8  2  0
  7  9  1  0
  9 10  2  0
  9 11  1  0
  5 12  2  0
 12 13  1  0
 12 14  1  0
 14 15  1  0
 15 16  1  0
 16 17  2  0
 16 18  1  0
 18 19  2  0
 18 20  1  0
 14 21  2  0
 21  3  1  0
M  END
$$$$
