
     RDKit          3D

 34 36  0  0  0  0  0  0  0  0999 V2000
  -14.7305   14.8876  -25.2309 C   0  0  0  0  0  0  0  0  0  0  0  0
  -14.6203   15.6838  -26.4902 C   0  0  0  0  0  0  0  0  0  0  0  0
  -15.6301   15.0020  -27.8046 S   0  0  0  0  0  6  0  0  0  0  0  0
  -17.0378   14.8607  -27.3270 O   0  0  0  0  0  0  0  0  0  0  0  0
  -15.0109   13.7102  -28.2036 O   0  0  0  0  0  0  0  0  0  0  0  0
  -15.5188   16.1149  -29.1647 C   0  0  0  0  0  0  0  0  0  0  0  0
  -14.5187   15.9982  -30.1063 C   0  0  0  0  0  0  0  0  0  0  0  0
  -14.4296   16.8697  -31.1735 C   0  0  0  0  0  0  0  0  0  0  0  0
  -15.3311   17.9003  -31.3566 C   0  0  0  0  0  0  0  0  0  0  0  0
  -15.2267   18.8332  -32.5084 C   0  0  0  0  0  0  0  0  0  0  0  0
  -16.2194   18.4636  -33.5757 C   0  0  0  0  0  0  0  0  0  0  0  0
  -15.8220   18.1961  -34.7297 O   0  0  0  0  0  0  0  0  0  0  0  0
  -17.6028   18.4138  -33.2926 N   0  0  0  0  0  0  0  0  0  0  0  0
  -18.6423   18.0796  -34.2006 C   0  0  0  0  0  0  0  0  0  0  0  0
  -18.5045   17.6792  -35.4852 C   0  0  0  0  0  0  0  0  0  0  0  0
  -19.6447   17.3866  -36.2473 C   0  0  0  0  0  0  0  0  0  0  0  0
  -19.3749   16.8737  -37.9056 Cl  0  0  0  0  0  0  0  0  0  0  0  0
  -20.9094   17.4958  -35.7227 C   0  0  0  0  0  0  0  0  0  0  0  0
  -22.0528   17.1804  -36.5564 C   0  0  0  0  0  0  0  0  0  0  0  0
  -22.8095   18.1291  -37.2111 C   0  0  0  0  0  0  0  0  0  0  0  0
  -23.8928   17.8099  -37.9993 C   0  0  0  0  0  0  0  0  0  0  0  0
  -24.2589   16.4904  -38.1578 C   0  0  0  0  0  0  0  0  0  0  0  0
  -23.5194   15.5150  -37.5137 C   0  0  0  0  0  0  0  0  0  0  0  0
  -22.4325   15.8508  -36.7244 C   0  0  0  0  0  0  0  0  0  0  0  0
  -21.6874   14.8927  -36.0775 O   0  0  0  0  0  0  0  0  0  0  0  0
  -22.1704   14.3653  -34.8572 C   0  0  0  0  0  0  0  0  0  0  0  0
  -22.8721   15.3475  -34.1510 F   0  0  0  0  0  0  0  0  0  0  0  0
  -23.0674   13.3145  -35.0727 F   0  0  0  0  0  0  0  0  0  0  0  0
  -21.1593   13.9461  -34.0204 F   0  0  0  0  0  0  0  0  0  0  0  0
  -21.0474   17.9040  -34.4137 C   0  0  0  0  0  0  0  0  0  0  0  0
  -22.6724   18.0399  -33.7537 Cl  0  0  0  0  0  0  0  0  0  0  0  0
  -19.9343   18.1935  -33.6575 C   0  0  0  0  0  0  0  0  0  0  0  0
  -16.3288   18.0080  -30.4076 C   0  0  0  0  0  0  0  0  0  0  0  0
  -16.4240   17.1400  -29.3378 C   0  0  0  0  0  0  0  0  0  0  0  0
  1  2  1  0
  2  3  1  0
  3  4  2  0
  3  5  2  0
  3  6  1  0
  6  7  2  0
  7  8  1  0
  8  9  2  0
  9 10  1  0
 10 11  1  0
 11 12  2  0
 11 13  1  0
 13 14  1  0
 14 15  2  0
 15 16  1  0
 16 17  1  0
 16 18  2  0
 18 19  1  0
 19 20  2  0
 20 21  1  0
 21 22  2  0
 22 23  1  0
 23 24  2  0
 24 25  1  0
 25 26  1  0
 26 27  1  0
 26 28  1  0
 26 29  1  0
 18 30  1  0
 30 31  1  0
 30 32  2  0
  9 33  1  0
 33 34  2  0
 34  6  1  0
 32 14  1  0
 24 19  1  0
M  END
$$$$
