
     RDKit          3D

 44 47  0  0  0  0  0  0  0  0999 V2000
   10.6067   23.4130   -7.7920 C   0  0  0  0  0  0  0  0  0  0  0  0
    9.5435   23.7687   -8.8119 C   0  0  0  0  0  0  0  0  0  0  0  0
    9.3672   22.6347   -9.7702 C   0  0  0  0  0  0  0  0  0  0  0  0
    8.3697   22.9611  -10.8423 C   0  0  0  0  0  0  0  0  0  0  0  0
    6.9316   22.7626  -10.4255 C   0  0  0  0  0  0  0  0  0  0  0  0
    6.3271   21.6214  -11.1819 C   0  0  0  0  0  0  0  0  0  0  0  0
    6.3222   21.7555  -12.6621 C   0  0  0  0  0  0  0  0  0  0  0  0
    5.6572   20.5842  -13.3588 C   0  0  0  0  0  0  0  0  0  0  0  0
    4.6734   21.0793  -14.4060 C   0  0  0  0  0  0  0  0  0  0  0  0
    4.0152   19.9757  -15.1783 C   0  0  0  0  0  0  0  0  0  0  0  0
    3.0867   20.4606  -16.2358 C   0  0  0  0  0  0  0  0  0  0  0  0
    3.1471   19.6517  -17.4860 C   0  0  0  0  0  0  0  0  0  0  0  0
    2.2827   20.0013  -18.6099 C   0  0  0  0  0  0  0  0  0  0  0  0
    2.5172   19.2882  -19.8608 C   0  0  0  0  0  0  0  0  0  0  0  0
    2.7476   19.9941  -20.9276 O   0  0  0  0  0  0  0  0  0  0  0  0
    2.5279   17.9321  -20.1043 O   0  0  0  0  0  0  0  0  0  0  0  0
    1.3801   17.2252  -20.5663 C   0  0  2  0  0  0  0  0  0  0  0  0
    1.1419   16.0202  -19.6227 C   0  0  1  0  0  0  0  0  0  0  0  0
    0.0539   16.3013  -18.6146 C   0  0  0  0  0  0  0  0  0  0  0  0
    0.8433   14.8151  -20.4251 C   0  0  1  0  0  0  0  0  0  0  0  0
   -0.3301   15.1030  -21.1669 O   0  0  0  0  0  0  0  0  0  0  0  0
    1.9806   14.6905  -21.4346 C   0  0  1  0  0  0  0  0  0  0  0  0
    2.0686   13.3121  -21.9391 C   0  0  0  0  0  0  0  0  0  0  0  0
    2.3604   12.2271  -21.2289 C   0  0  0  0  0  0  0  0  0  0  0  0
    2.3908   10.9334  -21.9556 C   0  0  0  0  0  0  0  0  0  0  0  0
    3.6038   10.2917  -21.8996 O   0  0  0  0  0  0  0  0  0  0  0  0
    2.6665   12.1261  -19.7812 C   0  0  0  0  0  0  0  0  0  0  0  0
    1.7307   12.9693  -18.9462 C   0  0  2  0  0  0  0  0  0  0  0  0
    2.4103   13.8326  -18.1397 O   0  0  0  0  0  0  0  0  0  0  0  0
    0.9709   12.0193  -18.0626 C   0  0  0  0  0  0  0  0  0  0  0  0
    1.3930   10.9702  -17.5507 O   0  0  0  0  0  0  0  0  0  0  0  0
   -0.3763   12.6096  -17.9431 C   0  0  0  0  0  0  0  0  0  0  0  0
   -1.3106   12.2022  -16.8312 C   0  0  0  0  0  0  0  0  0  0  0  0
   -0.5906   13.4792  -18.9007 C   0  0  0  0  0  0  0  0  0  0  0  0
    0.6046   13.5419  -19.7453 C   0  0  1  0  0  0  0  0  0  0  0  0
    1.6115   15.6173  -22.5347 C   0  0  2  0  0  0  0  0  0  0  0  0
    2.3251   16.7954  -22.9762 C   0  0  0  0  0  0  0  0  0  0  0  0
    3.7567   17.0664  -22.6770 C   0  0  0  0  0  0  0  0  0  0  0  0
    1.9502   17.2959  -24.3917 C   0  0  0  0  0  0  0  0  0  0  0  0
    1.2221   16.9431  -21.9868 C   0  0  2  0  0  0  0  0  0  0  0  0
   -0.0708   17.3400  -22.5476 O   0  0  0  0  0  0  0  0  0  0  0  0
   -0.2032   18.2902  -23.5041 C   0  0  0  0  0  0  0  0  0  0  0  0
   -1.1357   19.4386  -23.2701 C   0  0  0  0  0  0  0  0  0  0  0  0
    0.4535   18.2000  -24.5723 O   0  0  0  0  0  0  0  0  0  0  0  0
  1  2  1  0
  2  3  1  0
  3  4  1  0
  4  5  1  0
  5  6  1  0
  6  7  1  0
  7  8  1  0
  8  9  1  0
  9 10  1  0
 10 11  1  0
 11 12  1  0
 12 13  1  0
 13 14  1  0
 14 15  2  0
 14 16  1  0
 17 16  1  6
 17 18  1  0
 18 19  1  1
 18 20  1  0
 20 21  1  6
 20 22  1  0
 22 23  1  6
 23 24  2  0
 24 25  1  0
 25 26  1  0
 24 27  1  0
 27 28  1  0
 28 29  1  1
 28 30  1  0
 30 31  2  0
 30 32  1  0
 32 33  1  0
 32 34  2  0
 35 34  1  1
 22 36  1  0
 36 37  1  6
 37 38  1  0
 37 39  1  0
 37 40  1  0
 40 41  1  6
 41 42  1  0
 42 43  1  0
 42 44  2  0
 40 17  1  0
 35 20  1  0
 40 36  1  0
 35 28  1  0
M  END
$$$$
