
     RDKit          3D

 21 22  0  0  0  0  0  0  0  0999 V2000
  -13.1038   24.1135  -10.4181 Cl  0  0  0  0  0  0  0  0  0  0  0  0
  -14.6192   24.6585  -10.1780 O   0  0  0  0  0  0  0  0  0  0  0  0
  -13.7553   24.2468  -11.3579 S   0  0  0  0  0  6  0  0  0  0  0  0
  -14.1919   25.0419  -12.5265 O   0  0  0  0  0  0  0  0  0  0  0  0
  -14.1381   22.5707  -11.6697 C   0  0  0  0  0  0  0  0  0  0  0  0
  -13.2137   21.5585  -11.6753 C   0  0  0  0  0  0  0  0  0  0  0  0
  -13.6079   20.2635  -11.9446 C   0  0  0  0  0  0  0  0  0  0  0  0
  -14.9030   19.9410  -12.2112 C   0  0  0  0  0  0  0  0  0  0  0  0
  -15.8431   20.9429  -12.2107 C   0  0  0  0  0  0  0  0  0  0  0  0
  -17.1607   20.5939  -12.4875 C   0  0  0  0  0  0  0  0  0  0  0  0
  -18.0740   21.5715  -12.4884 N   0  0  0  0  0  0  0  0  0  0  0  0
  -17.7732   22.8452  -12.2382 C   0  0  0  0  0  0  0  0  0  0  0  0
  -16.4622   23.2079  -11.9603 C   0  0  0  0  0  0  0  0  0  0  0  0
  -15.4735   22.2363  -11.9455 C   0  0  0  0  0  0  0  0  0  0  0  0
  -12.1256   24.4044  -10.9668 N   0  0  0  0  0  0  0  0  0  0  0  0
  -11.7801   23.6540   -9.7104 C   0  0  0  0  0  0  0  0  0  0  0  0
  -11.5155   24.6581   -8.7609 C   0  0  0  0  0  0  0  0  0  0  0  0
  -11.2691   25.6751   -7.8326 C   0  0  0  0  0  0  0  0  0  0  0  0
  -11.3598   26.9569   -8.6247 N   0  0  0  0  0  0  0  0  0  0  0  0
  -12.0516   26.7379   -9.8949 C   0  0  0  0  0  0  0  0  0  0  0  0
  -11.6642   25.7804  -10.8928 C   0  0  0  0  0  0  0  0  0  0  0  0
  2  3  2  0
  3  4  2  0
  3  5  1  0
  5  6  2  0
  6  7  1  0
  7  8  2  0
  8  9  1  0
  9 10  2  0
 10 11  1  0
 11 12  2  0
 12 13  1  0
 13 14  2  0
  3 15  1  0
 15 16  1  0
 16 17  1  0
 17 18  1  0
 18 19  1  0
 19 20  1  0
 20 21  1  0
 14  5  1  0
 21 15  1  0
 14  9  1  0
M  END
$$$$
