
     RDKit          3D

 45 50  0  0  0  0  0  0  0  0999 V2000
  -24.6122   24.1498  -32.8877 C   0  0  0  0  0  0  0  0  0  0  0  0
  -23.1620   23.9176  -32.5142 C   0  0  0  0  0  0  0  0  0  0  0  0
  -22.9750   22.4929  -32.4840 O   0  0  0  0  0  0  0  0  0  0  0  0
  -21.6899   21.9760  -32.4480 C   0  0  0  0  0  0  0  0  0  0  0  0
  -20.5716   22.6319  -32.1191 N   0  0  0  0  0  0  0  0  0  0  0  0
  -19.5221   21.7928  -32.1927 C   0  0  0  0  0  0  0  0  0  0  0  0
  -18.1762   21.9759  -31.9589 C   0  0  0  0  0  0  0  0  0  0  0  0
  -17.2900   20.9466  -32.0961 C   0  0  0  0  0  0  0  0  0  0  0  0
  -17.7855   19.7211  -32.4714 C   0  0  0  0  0  0  0  0  0  0  0  0
  -19.1439   19.4786  -32.7206 C   0  0  0  0  0  0  0  0  0  0  0  0
  -19.6244   18.0973  -32.7976 C   0  0  0  0  0  0  0  0  0  0  0  0
  -19.4867   17.4776  -31.6750 O   0  0  0  0  0  0  0  0  0  0  0  0
  -20.1649   17.4328  -33.7905 O   0  0  0  0  0  0  0  0  0  0  0  0
  -19.4279   16.0796  -34.3769 C   0  0  0  0  0  0  0  0  0  0  0  0
  -17.9766   16.9579  -34.7936 C   0  0  0  0  0  0  0  0  0  0  0  0
  -18.9892   15.7086  -33.2380 O   0  0  0  0  0  0  0  0  0  0  0  0
  -19.0157   14.8485  -32.2376 C   0  0  0  0  0  0  0  0  0  0  0  0
  -19.8401   13.9305  -32.2253 O   0  0  0  0  0  0  0  0  0  0  0  0
  -18.1445   14.8898  -31.1385 O   0  0  0  0  0  0  0  0  0  0  0  0
  -17.0031   14.0682  -31.1194 C   0  0  0  0  0  0  0  0  0  0  0  0
  -15.7062   14.7670  -30.9401 C   0  0  0  0  0  0  0  0  0  0  0  0
  -15.1686   14.6051  -29.5265 C   0  0  0  0  0  0  0  0  0  0  0  0
  -14.9785   13.1803  -29.1074 C   0  0  0  0  0  0  0  0  0  0  0  0
  -15.9993   12.2598  -29.7774 C   0  0  0  0  0  0  0  0  0  0  0  0
  -17.2457   13.0870  -29.9338 C   0  0  0  0  0  0  0  0  0  0  0  0
  -20.0124   20.5326  -32.5886 C   0  0  0  0  0  0  0  0  0  0  0  0
  -21.3403   20.6809  -32.7468 N   0  0  0  0  0  0  0  0  0  0  0  0
  -22.2503   19.7684  -33.4300 C   0  0  0  0  0  0  0  0  0  0  0  0
  -23.0613   18.9975  -32.3787 C   0  0  0  0  0  0  0  0  0  0  0  0
  -22.9138   19.1834  -31.0390 C   0  0  0  0  0  0  0  0  0  0  0  0
  -23.6864   18.5213  -30.1053 C   0  0  0  0  0  0  0  0  0  0  0  0
  -24.6559   17.6293  -30.5252 C   0  0  0  0  0  0  0  0  0  0  0  0
  -25.4574   16.9744  -29.5016 C   0  0  0  0  0  0  0  0  0  0  0  0
  -25.4606   15.5808  -29.5253 C   0  0  0  0  0  0  0  0  0  0  0  0
  -26.1688   14.8558  -28.5796 C   0  0  0  0  0  0  0  0  0  0  0  0
  -26.8740   15.5439  -27.6093 C   0  0  0  0  0  0  0  0  0  0  0  0
  -26.8981   16.9111  -27.5523 C   0  0  0  0  0  0  0  0  0  0  0  0
  -26.1660   17.6178  -28.5321 C   0  0  0  0  0  0  0  0  0  0  0  0
  -26.1972   19.0809  -28.4828 C   0  0  0  0  0  0  0  0  0  0  0  0
  -25.0849   19.8598  -28.4565 N   0  0  0  0  0  0  0  0  0  0  0  0
  -25.4308   21.1494  -28.3981 N   0  0  0  0  0  0  0  0  0  0  0  0
  -26.7478   21.1475  -28.3885 N   0  0  0  0  0  0  0  0  0  0  0  0
  -27.2128   19.9139  -28.4396 N   0  0  0  0  0  0  0  0  0  0  0  0
  -24.8162   17.4311  -31.8803 C   0  0  0  0  0  0  0  0  0  0  0  0
  -24.0256   18.1076  -32.7989 C   0  0  0  0  0  0  0  0  0  0  0  0
  1  2  1  0
  2  3  1  0
  3  4  1  0
  4  5  2  0
  5  6  1  0
  6  7  2  0
  7  8  1  0
  8  9  2  0
  9 10  1  0
 10 11  1  0
 11 12  2  0
 11 13  1  0
 13 14  1  0
 14 15  1  0
 14 16  1  0
 16 17  1  0
 17 18  2  0
 17 19  1  0
 19 20  1  0
 20 21  1  0
 21 22  1  0
 22 23  1  0
 23 24  1  0
 24 25  1  0
 10 26  2  0
 26 27  1  0
 27 28  1  0
 28 29  1  0
 29 30  2  0
 30 31  1  0
 31 32  2  0
 32 33  1  0
 33 34  2  0
 34 35  1  0
 35 36  2  0
 36 37  1  0
 37 38  2  0
 38 39  1  0
 39 40  1  0
 40 41  2  0
 41 42  1  0
 42 43  1  0
 32 44  1  0
 44 45  2  0
 27  4  1  0
 45 29  1  0
 26  6  1  0
 38 33  1  0
 43 39  2  0
 25 20  1  0
M  END
$$$$
