
     RDKit          3D

 31 34  0  0  0  0  0  0  0  0999 V2000
  -23.2765   14.9483  -29.6459 O   0  0  0  0  0  0  0  0  0  0  0  0
  -24.3326   15.4732  -30.0260 C   0  0  0  0  0  0  0  0  0  0  0  0
  -24.2929   16.3209  -31.1879 N   0  0  0  0  0  0  0  0  0  0  0  0
  -23.1040   16.5555  -31.9168 C   0  0  0  0  0  0  0  0  0  0  0  0
  -22.9813   17.7318  -32.6159 C   0  0  0  0  0  0  0  0  0  0  0  0
  -21.8228   18.0045  -33.3543 C   0  0  0  0  0  0  0  0  0  0  0  0
  -20.7976   17.0996  -33.3880 C   0  0  0  0  0  0  0  0  0  0  0  0
  -19.3374   17.3551  -34.2901 S   0  0  0  0  0  6  0  0  0  0  0  0
  -19.6916   18.1047  -35.5660 O   0  0  0  0  0  0  0  0  0  0  0  0
  -18.7836   16.0326  -34.7543 O   0  0  0  0  0  0  0  0  0  0  0  0
  -18.1510   18.2244  -33.4099 N   0  0  0  0  0  0  0  0  0  0  0  0
  -17.6050   17.7088  -32.2399 C   0  0  0  0  0  0  0  0  0  0  0  0
  -16.7940   18.2586  -31.3235 N   0  0  0  0  0  0  0  0  0  0  0  0
  -16.3857   17.6235  -30.2995 C   0  0  0  0  0  0  0  0  0  0  0  0
  -16.7654   16.3208  -30.0834 C   0  0  0  0  0  0  0  0  0  0  0  0
  -17.8067   16.0656  -31.5383 S   0  0  0  0  0  0  0  0  0  0  0  0
  -20.9520   15.9240  -32.6727 C   0  0  0  0  0  0  0  0  0  0  0  0
  -22.0848   15.6358  -31.9387 C   0  0  0  0  0  0  0  0  0  0  0  0
  -25.6667   15.3237  -29.4046 C   0  0  0  0  0  0  0  0  0  0  0  0
  -25.9057   16.5251  -28.5652 C   0  0  0  0  0  0  0  0  0  0  0  0
  -27.2121   16.8520  -28.2735 C   0  0  0  0  0  0  0  0  0  0  0  0
  -27.4882   17.9451  -27.5050 C   0  0  0  0  0  0  0  0  0  0  0  0
  -26.4130   18.6994  -27.0387 C   0  0  0  0  0  0  0  0  0  0  0  0
  -25.1048   18.3936  -27.3161 C   0  0  0  0  0  0  0  0  0  0  0  0
  -24.8464   17.2901  -28.0908 C   0  0  0  0  0  0  0  0  0  0  0  0
  -25.8372   14.0709  -28.6403 C   0  0  0  0  0  0  0  0  0  0  0  0
  -25.3332   13.8570  -27.3776 C   0  0  0  0  0  0  0  0  0  0  0  0
  -25.5230   12.6445  -26.7038 C   0  0  0  0  0  0  0  0  0  0  0  0
  -26.2278   11.6108  -27.2842 C   0  0  0  0  0  0  0  0  0  0  0  0
  -26.7363   11.8160  -28.5485 C   0  0  0  0  0  0  0  0  0  0  0  0
  -26.5477   13.0111  -29.2097 C   0  0  0  0  0  0  0  0  0  0  0  0
  1  2  2  0
  2  3  1  0
  3  4  1  0
  4  5  2  0
  5  6  1  0
  6  7  2  0
  7  8  1  0
  8  9  2  0
  8 10  2  0
  8 11  1  0
 11 12  1  0
 12 13  2  0
 13 14  1  0
 14 15  2  0
 15 16  1  0
  7 17  1  0
 17 18  2  0
  2 19  1  0
 19 20  1  0
 20 21  2  0
 21 22  1  0
 22 23  2  0
 23 24  1  0
 24 25  2  0
 19 26  1  0
 26 27  2  0
 27 28  1  0
 28 29  2  0
 29 30  1  0
 30 31  2  0
 18  4  1  0
 25 20  1  0
 31 26  1  0
 16 12  1  0
M  END
$$$$
