
     RDKit          3D

 16 15  0  0  0  0  0  0  0  0999 V2000
  -19.6393   39.5323  -23.5238 C   0  0  0  0  0  0  0  0  0  0  0  0
  -18.8527   39.4709  -22.2574 C   0  0  0  0  0  0  0  0  0  0  0  0
  -19.8120   39.7125  -21.0978 C   0  0  0  0  0  0  0  0  0  0  0  0
  -18.1693   38.2567  -22.0254 N   0  0  0  0  0  0  0  0  0  0  0  0
  -17.2061   37.8610  -22.9829 C   0  0  0  0  0  0  0  0  0  0  0  0
  -16.5876   36.5472  -22.5666 C   0  0  0  0  0  0  0  0  0  0  0  0
  -15.9751   36.7208  -21.3128 O   0  0  0  0  0  0  0  0  0  0  0  0
  -17.5878   35.4604  -22.4544 C   0  0  0  0  0  0  0  0  0  0  0  0
  -17.2513   34.3042  -21.7899 C   0  0  0  0  0  0  0  0  0  0  0  0
  -18.1408   33.2533  -21.6520 C   0  0  0  0  0  0  0  0  0  0  0  0
  -19.3892   33.3687  -22.1918 C   0  0  0  0  0  0  0  0  0  0  0  0
  -20.2756   32.3173  -22.0524 O   0  0  0  0  0  0  0  0  0  0  0  0
  -19.7413   34.5341  -22.8667 C   0  0  0  0  0  0  0  0  0  0  0  0
  -20.9929   34.6621  -23.4136 O   0  0  0  0  0  0  0  0  0  0  0  0
  -18.8321   35.5855  -22.9972 C   0  0  0  0  0  0  0  0  0  0  0  0
  -18.5818   37.3985  -22.3988 Cl  0  0  0  0  0  0  0  0  0  0  0  0
  1  2  1  0
  2  3  1  0
  2  4  1  0
  4  5  1  0
  5  6  1  0
  6  7  1  0
  6  8  1  0
  8  9  2  0
  9 10  1  0
 10 11  2  0
 11 12  1  0
 11 13  1  0
 13 14  1  0
 13 15  2  0
 15  8  1  0
M  END
$$$$
