
     RDKit          3D

 30 31  0  0  0  0  0  0  0  0999 V2000
  -11.4576   23.3732   -8.2534 C   0  0  0  0  0  0  0  0  0  0  0  0
  -11.6176   22.3697   -9.3489 C   0  0  0  0  0  0  0  0  0  0  0  0
  -10.7972   21.2608   -9.3555 C   0  0  0  0  0  0  0  0  0  0  0  0
  -10.9597   20.3462  -10.3743 C   0  0  0  0  0  0  0  0  0  0  0  0
  -11.9125   20.5390  -11.3516 C   0  0  0  0  0  0  0  0  0  0  0  0
  -12.7451   21.6506  -11.3574 C   0  0  0  0  0  0  0  0  0  0  0  0
  -13.7675   21.8400  -12.4241 C   0  0  0  0  0  0  0  0  0  0  0  0
  -15.0338   21.2575  -12.1209 N   0  0  0  0  0  0  0  0  0  0  0  0
  -15.6804   21.7398  -10.9426 C   0  0  0  0  0  0  0  0  0  0  0  0
  -16.7540   20.7684  -10.5089 C   0  0  0  0  0  0  0  0  0  0  0  0
  -17.3919   20.1100  -11.6052 N   0  0  0  0  0  0  0  0  0  0  0  0
  -18.5062   19.3516  -11.0974 C   0  0  0  0  0  0  0  0  0  0  0  0
  -19.4319   20.3172  -10.4404 C   0  0  0  0  0  0  0  0  0  0  0  0
  -19.9938   20.0386   -9.1937 C   0  0  0  0  0  0  0  0  0  0  0  0
  -20.8555   20.9257   -8.5701 C   0  0  0  0  0  0  0  0  0  0  0  0
  -21.1905   22.1215   -9.1620 C   0  0  0  0  0  0  0  0  0  0  0  0
  -20.6411   22.4271  -10.4134 C   0  0  0  0  0  0  0  0  0  0  0  0
  -19.7870   21.5220  -11.0061 C   0  0  0  0  0  0  0  0  0  0  0  0
  -19.1770   18.5385  -12.1313 C   0  0  0  0  0  0  0  0  0  0  0  0
  -19.4846   19.0263  -13.3813 C   0  0  0  0  0  0  0  0  0  0  0  0
  -20.1214   18.2227  -14.3349 C   0  0  0  0  0  0  0  0  0  0  0  0
  -20.4559   16.9199  -14.0419 C   0  0  0  0  0  0  0  0  0  0  0  0
  -21.2615   15.8922  -15.2379 Cl  0  0  0  0  0  0  0  0  0  0  0  0
  -20.1547   16.4300  -12.8071 C   0  0  0  0  0  0  0  0  0  0  0  0
  -19.5216   17.2322  -11.8621 C   0  0  0  0  0  0  0  0  0  0  0  0
  -16.4936   19.3704  -12.4238 C   0  0  0  0  0  0  0  0  0  0  0  0
  -15.0817   19.8257  -12.2558 C   0  0  0  0  0  0  0  0  0  0  0  0
  -12.5766   22.5612  -10.3350 C   0  0  0  0  0  0  0  0  0  0  0  0
  -15.8536   20.6455  -10.9888 Cl  0  0  0  0  0  0  0  0  0  0  0  0
  -15.8499   20.6466  -10.9883 Cl  0  0  0  0  0  0  0  0  0  0  0  0
  1  2  1  0
  2  3  2  0
  3  4  1  0
  4  5  2  0
  5  6  1  0
  6  7  1  0
  7  8  1  0
  8  9  1  0
  9 10  1  0
 10 11  1  0
 11 12  1  0
 12 13  1  0
 13 14  2  0
 14 15  1  0
 15 16  2  0
 16 17  1  0
 17 18  2  0
 12 19  1  0
 19 20  2  0
 20 21  1  0
 21 22  2  0
 22 23  1  0
 22 24  1  0
 24 25  2  0
 11 26  1  0
 26 27  1  0
  6 28  2  0
 28  2  1  0
 27  8  1  0
 18 13  1  0
 25 19  1  0
M  END
$$$$
