
     RDKit          3D

 18 15  0  0  0  0  0  0  0  0999 V2000
  -18.3739   36.5941  -22.1064 Cl  0  0  0  0  0  0  0  0  0  0  0  0
  -18.5236   34.1256  -24.1294 N   0  0  0  0  0  0  0  0  0  0  0  0
  -19.1965   34.2708  -23.0243 C   0  0  0  0  0  0  0  0  0  0  0  0
  -20.0844   33.2711  -22.6035 N   0  0  0  0  0  0  0  0  0  0  0  0
  -19.0435   35.4359  -22.2325 N   0  0  0  0  0  0  0  0  0  0  0  0
  -18.1329   36.4291  -22.6921 C   0  0  0  0  0  0  0  0  0  0  0  0
  -17.4916   36.2680  -23.7651 O   0  0  0  0  0  0  0  0  0  0  0  0
  -17.9147   37.6644  -21.9340 C   0  0  0  0  0  0  0  0  0  0  0  0
  -18.5583   37.9146  -20.7803 N   0  0  0  0  0  0  0  0  0  0  0  0
  -18.3688   39.0457  -20.0711 C   0  0  0  0  0  0  0  0  0  0  0  0
  -19.2331   39.3230  -18.5728 Cl  0  0  0  0  0  0  0  0  0  0  0  0
  -17.4865   40.0076  -20.5169 C   0  0  0  0  0  0  0  0  0  0  0  0
  -17.2755   41.2101  -19.7769 N   0  0  0  0  0  0  0  0  0  0  0  0
  -16.8418   39.7591  -21.6708 N   0  0  0  0  0  0  0  0  0  0  0  0
  -17.0329   38.6247  -22.3803 C   0  0  0  0  0  0  0  0  0  0  0  0
  -16.3374   38.3833  -23.6019 N   0  0  0  0  0  0  0  0  0  0  0  0
  -18.4965   37.3685  -22.0531 O   0  0  0  0  0  0  0  0  0  0  0  0
  -18.4780   37.3636  -22.0450 O   0  0  0  0  0  0  0  0  0  0  0  0
  2  3  2  0
  3  4  1  0
  3  5  1  0
  5  6  1  0
  6  7  2  0
  6  8  1  0
  8  9  2  0
  9 10  1  0
 10 11  1  0
 10 12  2  0
 12 13  1  0
 12 14  1  0
 14 15  2  0
 15 16  1  0
 15  8  1  0
M  END
$$$$
