
     RDKit          3D

  7  6  0  0  0  0  0  0  0  0999 V2000
  -18.3187   37.1942  -20.9502 O   0  0  0  0  0  0  0  0  0  0  0  0
  -17.5602   36.3731  -21.5011 C   0  0  0  0  0  0  0  0  0  0  0  0
  -16.2089   36.4101  -21.2052 O   0  0  0  0  0  0  0  0  0  0  0  0
  -18.1335   35.3805  -22.4586 C   0  0  0  0  0  0  0  0  0  0  0  0
  -16.7532   34.3728  -22.9939 Cl  0  0  0  0  0  0  0  0  0  0  0  0
  -19.3264   34.3761  -21.6605 Cl  0  0  0  0  0  0  0  0  0  0  0  0
  -18.7638   36.2410  -23.8615 Cl  0  0  0  0  0  0  0  0  0  0  0  0
  1  2  2  0
  2  3  1  0
  2  4  1  0
  4  5  1  0
  4  6  1  0
  4  7  1  0
M  END
$$$$
