
     RDKit          3D

 35 39  0  0  0  0  0  0  0  0999 V2000
  -12.8189   43.1868  -19.6677 C   0  0  0  0  0  0  0  0  0  0  0  0
  -13.9914   43.8628  -20.3430 C   0  0  0  0  0  0  0  0  0  0  0  0
  -15.1439   43.1097  -20.1328 O   0  0  0  0  0  0  0  0  0  0  0  0
  -16.3379   43.4153  -20.7446 C   0  0  0  0  0  0  0  0  0  0  0  0
  -16.9447   44.6387  -20.6476 C   0  0  0  0  0  0  0  0  0  0  0  0
  -18.1515   44.9553  -21.2608 C   0  0  0  0  0  0  0  0  0  0  0  0
  -18.7453   46.2188  -21.1182 N   0  0  0  0  0  0  0  0  0  0  0  0
  -18.3170   47.2448  -20.1738 C   0  0  0  0  0  0  0  0  0  0  0  0
  -18.4623   48.6376  -20.7560 C   0  0  0  0  0  0  0  0  0  0  0  0
  -19.8954   48.8974  -21.1796 C   0  0  0  0  0  0  0  0  0  0  0  0
  -20.0071   49.4946  -22.4101 O   0  0  0  0  0  0  0  0  0  0  0  0
  -20.6972   47.6071  -21.1584 C   0  0  0  0  0  0  0  0  0  0  0  0
  -19.8607   46.5967  -21.9599 C   0  0  0  0  0  0  0  0  0  0  0  0
  -18.7374   43.9631  -21.9944 C   0  0  0  0  0  0  0  0  0  0  0  0
  -18.1225   42.7058  -22.0989 C   0  0  0  0  0  0  0  0  0  0  0  0
  -16.9305   42.3909  -21.4942 C   0  0  0  0  0  0  0  0  0  0  0  0
  -16.2970   41.1309  -21.5895 N   0  0  0  0  0  0  0  0  0  0  0  0
  -16.8787   39.8605  -21.6374 C   0  0  0  0  0  0  0  0  0  0  0  0
  -16.4500   38.8635  -20.8652 N   0  0  0  0  0  0  0  0  0  0  0  0
  -16.9649   37.6300  -20.8664 C   0  0  0  0  0  0  0  0  0  0  0  0
  -18.0022   37.3691  -21.7165 C   0  0  0  0  0  0  0  0  0  0  0  0
  -18.4721   38.4016  -22.5398 C   0  0  0  0  0  0  0  0  0  0  0  0
  -17.9211   39.5971  -22.4910 N   0  0  0  0  0  0  0  0  0  0  0  0
  -19.5271   38.3938  -23.5025 N   0  0  0  0  0  0  0  0  0  0  0  0
  -19.5319   39.3050  -24.5610 C   0  0  0  0  0  0  0  0  0  0  0  0
  -20.6858   40.2054  -24.7744 C   0  0  0  0  0  0  0  0  0  0  0  0
  -20.0738   41.0949  -25.8901 C   0  0  0  0  0  0  0  0  0  0  0  0
  -19.3552   40.0774  -26.7788 C   0  0  0  0  0  0  0  0  0  0  0  0
  -19.2451   38.7943  -25.9427 C   0  0  0  0  0  0  0  0  0  0  0  0
  -20.6424   37.4323  -23.4269 C   0  0  0  0  0  0  0  0  0  0  0  0
  -20.1554   36.0241  -23.6948 C   0  0  0  0  0  0  0  0  0  0  0  0
  -19.5783   35.4896  -22.4373 C   0  0  0  0  0  0  0  0  0  0  0  0
  -20.0484   34.4338  -21.9431 O   0  0  0  0  0  0  0  0  0  0  0  0
  -18.5067   36.0372  -21.6711 N   0  0  0  0  0  0  0  0  0  0  0  0
  -17.8327   35.1737  -20.7340 C   0  0  0  0  0  0  0  0  0  0  0  0
  1  2  1  0
  2  3  1  0
  3  4  1  0
  4  5  2  0
  5  6  1  0
  6  7  1  0
  7  8  1  0
  8  9  1  0
  9 10  1  0
 10 11  1  0
 10 12  1  0
 12 13  1  0
  6 14  2  0
 14 15  1  0
 15 16  2  0
 16 17  1  0
 17 18  1  0
 18 19  2  0
 19 20  1  0
 20 21  2  0
 21 22  1  0
 22 23  2  0
 22 24  1  0
 24 25  1  0
 25 26  1  0
 26 27  1  0
 27 28  1  0
 28 29  1  0
 24 30  1  0
 30 31  1  0
 31 32  1  0
 32 33  2  0
 32 34  1  0
 34 35  1  0
 16  4  1  0
 23 18  1  0
 29 25  1  0
 13  7  1  0
 34 21  1  0
M  END
$$$$
