
     RDKit          3D

 58 63  0  0  0  0  0  0  0  0999 V2000
  -26.5801   15.5312  -31.9636 C   0  0  0  0  0  0  0  0  0  0  0  0
  -26.0136   16.2592  -30.7677 C   0  0  0  0  0  0  0  0  0  0  0  0
  -24.4818   16.3136  -30.8683 C   0  0  2  0  0  0  0  0  0  0  0  0
  -23.9108   16.9745  -29.7531 N   0  0  0  0  0  0  0  0  0  0  0  0
  -24.2066   16.4806  -28.4343 C   0  0  0  0  0  0  0  0  0  0  0  0
  -24.4065   15.2476  -28.3124 O   0  0  0  0  0  0  0  0  0  0  0  0
  -24.2895   17.3322  -27.2370 C   0  0  2  0  0  0  0  0  0  0  0  0
  -22.9523   17.6167  -26.5893 C   0  0  0  0  0  0  0  0  0  0  0  0
  -25.1065   16.6831  -26.2180 N   0  0  0  0  0  0  0  0  0  0  0  0
  -24.2412   16.0743  -25.2462 C   0  0  0  0  0  0  0  0  0  0  0  0
  -24.1219   16.9177  -32.1505 C   0  0  0  0  0  0  0  0  0  0  0  0
  -24.8183   17.9574  -32.5408 O   0  0  0  0  0  0  0  0  0  0  0  0
  -23.1108   16.5310  -33.0394 N   0  0  0  0  0  0  0  0  0  0  0  0
  -22.1739   15.4477  -32.8981 C   0  0  0  0  0  0  0  0  0  0  0  0
  -21.8773   14.9774  -34.2961 C   0  0  1  0  0  0  0  0  0  0  0  0
  -22.4262   13.7011  -34.5291 O   0  0  0  0  0  0  0  0  0  0  0  0
  -22.4887   16.0032  -35.2123 C   0  0  0  0  0  0  0  0  0  0  0  0
  -22.7552   17.1542  -34.3058 C   0  0  1  0  0  0  0  0  0  0  0  0
  -23.7419   18.1757  -34.8095 C   0  0  0  0  0  0  0  0  0  0  0  0
  -23.0694   19.0373  -35.8419 C   0  0  0  0  0  0  0  0  0  0  0  0
  -22.7170   20.3367  -35.7901 C   0  0  0  0  0  0  0  0  0  0  0  0
  -22.6093   21.2433  -34.6562 C   0  0  0  0  0  0  0  0  0  0  0  0
  -23.4748   22.3010  -34.4752 N   0  0  0  0  0  0  0  0  0  0  0  0
  -23.1051   23.0185  -33.4023 C   0  0  0  0  0  0  0  0  0  0  0  0
  -23.6109   24.1482  -32.7815 C   0  0  0  0  0  0  0  0  0  0  0  0
  -23.0192   24.6841  -31.6599 C   0  0  0  0  0  0  0  0  0  0  0  0
  -23.4869   25.7802  -31.0271 F   0  0  0  0  0  0  0  0  0  0  0  0
  -21.8854   24.0842  -31.1300 C   0  0  0  0  0  0  0  0  0  0  0  0
  -21.3692   22.9684  -31.7257 C   0  0  0  0  0  0  0  0  0  0  0  0
  -21.9813   22.4507  -32.8494 C   0  0  0  0  0  0  0  0  0  0  0  0
  -21.6924   21.3255  -33.6742 C   0  0  0  0  0  0  0  0  0  0  0  0
  -20.4376   20.5485  -33.4253 C   0  0  0  0  0  0  0  0  0  0  0  0
  -19.2628   21.1613  -34.1414 C   0  0  2  0  0  0  0  0  0  0  0  0
  -19.5592   22.3991  -34.9175 C   0  0  0  0  0  0  0  0  0  0  0  0
  -18.4881   22.3291  -36.0434 C   0  0  2  0  0  0  0  0  0  0  0  0
  -18.7573   23.1769  -37.0726 O   0  0  0  0  0  0  0  0  0  0  0  0
  -18.7201   20.8439  -36.4226 C   0  0  0  0  0  0  0  0  0  0  0  0
  -18.6887   20.2413  -35.0788 N   0  0  0  0  0  0  0  0  0  0  0  0
  -18.1217   18.9882  -34.7855 C   0  0  0  0  0  0  0  0  0  0  0  0
  -18.0900   18.6310  -33.5916 O   0  0  0  0  0  0  0  0  0  0  0  0
  -17.5819   18.1419  -35.8412 C   0  0  2  0  0  0  0  0  0  0  0  0
  -18.6731   17.2847  -36.4908 C   0  0  0  0  0  0  0  0  0  0  0  0
  -18.1381   16.2058  -37.3573 C   0  0  0  0  0  0  0  0  0  0  0  0
  -16.4877   17.2883  -35.5301 N   0  0  0  0  0  0  0  0  0  0  0  0
  -15.1205   17.4746  -35.8225 C   0  0  0  0  0  0  0  0  0  0  0  0
  -14.7604   18.2966  -36.6685 O   0  0  0  0  0  0  0  0  0  0  0  0
  -14.0942   16.6471  -35.0834 C   0  0  2  0  0  0  0  0  0  0  0  0
  -13.3860   17.5351  -34.0869 C   0  0  0  0  0  0  0  0  0  0  0  0
  -13.1294   16.0598  -35.9484 N   0  0  0  0  0  0  0  0  0  0  0  0
  -13.4943   16.2593  -37.3230 C   0  0  0  0  0  0  0  0  0  0  0  0
  -22.3017   20.6668  -37.0690 N   0  0  0  0  0  0  0  0  0  0  0  0
  -22.3889   19.6097  -37.8796 C   0  0  0  0  0  0  0  0  0  0  0  0
  -22.0959   19.4443  -39.2115 C   0  0  0  0  0  0  0  0  0  0  0  0
  -22.2897   18.1905  -39.8198 C   0  0  0  0  0  0  0  0  0  0  0  0
  -21.9792   18.1072  -41.1261 F   0  0  0  0  0  0  0  0  0  0  0  0
  -22.7712   17.1354  -39.0824 C   0  0  0  0  0  0  0  0  0  0  0  0
  -23.0619   17.3087  -37.7496 C   0  0  0  0  0  0  0  0  0  0  0  0
  -22.8703   18.5576  -37.1366 C   0  0  0  0  0  0  0  0  0  0  0  0
  1  2  1  0
  3  2  1  1
  3  4  1  0
  4  5  1  0
  5  6  2  0
  5  7  1  0
  7  8  1  1
  7  9  1  0
  9 10  1  0
  3 11  1  0
 11 12  2  0
 11 13  1  0
 13 14  1  0
 14 15  1  0
 15 16  1  6
 15 17  1  0
 17 18  1  0
 18 19  1  6
 19 20  1  0
 20 21  2  0
 21 22  1  0
 22 23  1  0
 23 24  1  0
 24 25  2  0
 25 26  1  0
 26 27  1  0
 26 28  2  0
 28 29  1  0
 29 30  2  0
 30 31  1  0
 31 32  1  0
 33 32  1  6
 33 34  1  0
 34 35  1  0
 35 36  1  6
 35 37  1  0
 37 38  1  0
 38 39  1  0
 39 40  2  0
 39 41  1  0
 41 42  1  1
 42 43  1  0
 41 44  1  0
 44 45  1  0
 45 46  2  0
 45 47  1  0
 47 48  1  1
 47 49  1  0
 49 50  1  0
 21 51  1  0
 51 52  1  0
 52 53  2  0
 53 54  1  0
 54 55  1  0
 54 56  2  0
 56 57  1  0
 57 58  2  0
 18 13  1  0
 58 20  1  0
 31 22  2  0
 38 33  1  0
 58 52  1  0
 30 24  1  0
M  END
$$$$
