
     RDKit          3D

 27 28  0  0  0  0  0  0  0  0999 V2000
  -14.1086   45.5110  -20.9314 C   0  0  0  0  0  0  0  0  0  0  0  0
  -14.6690   44.2210  -20.3699 C   0  0  0  0  0  0  0  0  0  0  0  0
  -13.9805   43.0852  -21.1294 C   0  0  0  0  0  0  0  0  0  0  0  0
  -14.3399   44.1078  -18.8983 C   0  0  0  0  0  0  0  0  0  0  0  0
  -16.0642   44.1571  -20.6016 O   0  0  0  0  0  0  0  0  0  0  0  0
  -16.8325   43.0779  -20.2467 C   0  0  0  0  0  0  0  0  0  0  0  0
  -16.9168   42.7901  -19.0359 O   0  0  0  0  0  0  0  0  0  0  0  0
  -17.5409   42.2642  -21.1701 N   0  0  0  0  0  0  0  0  0  0  0  0
  -18.7615   41.6478  -20.7748 C   0  0  0  0  0  0  0  0  0  0  0  0
  -19.3565   40.6962  -21.7506 C   0  0  0  0  0  0  0  0  0  0  0  0
  -18.5544   39.4390  -21.8793 C   0  0  0  0  0  0  0  0  0  0  0  0
  -17.6109   38.9627  -21.0810 N   0  0  0  0  0  0  0  0  0  0  0  0
  -17.1898   37.8268  -21.6000 N   0  0  0  0  0  0  0  0  0  0  0  0
  -17.8994   37.6359  -22.7207 C   0  0  0  0  0  0  0  0  0  0  0  0
  -17.7664   36.2812  -23.8292 S   0  0  0  0  0  6  0  0  0  0  0  0
  -16.6381   36.5401  -24.7971 O   0  0  0  0  0  0  0  0  0  0  0  0
  -19.0649   36.1101  -24.5302 O   0  0  0  0  0  0  0  0  0  0  0  0
  -17.3309   34.8622  -22.8777 C   0  0  0  0  0  0  0  0  0  0  0  0
  -18.3998   34.3979  -21.9841 C   0  0  0  0  0  0  0  0  0  0  0  0
  -19.6030   34.0120  -22.5439 C   0  0  0  0  0  0  0  0  0  0  0  0
  -20.6045   33.5799  -21.7204 C   0  0  0  0  0  0  0  0  0  0  0  0
  -20.4570   33.5147  -20.3428 C   0  0  0  0  0  0  0  0  0  0  0  0
  -21.7558   32.9575  -19.3097 Cl  0  0  0  0  0  0  0  0  0  0  0  0
  -19.2379   33.9106  -19.8316 C   0  0  0  0  0  0  0  0  0  0  0  0
  -18.1936   34.3554  -20.6228 C   0  0  0  0  0  0  0  0  0  0  0  0
  -16.6897   34.8322  -19.8772 Cl  0  0  0  0  0  0  0  0  0  0  0  0
  -18.7314   38.6196  -22.8903 O   0  0  0  0  0  0  0  0  0  0  0  0
  1  2  1  0
  2  3  1  0
  2  4  1  0
  2  5  1  0
  5  6  1  0
  6  7  2  0
  6  8  1  0
  8  9  1  0
  9 10  1  0
 10 11  1  0
 11 12  2  0
 12 13  1  0
 13 14  2  0
 14 15  1  0
 15 16  2  0
 15 17  2  0
 15 18  1  0
 18 19  1  0
 19 20  2  0
 20 21  1  0
 21 22  2  0
 22 23  1  0
 22 24  1  0
 24 25  2  0
 25 26  1  0
 14 27  1  0
 27 11  1  0
 25 19  1  0
M  END
$$$$
