
     RDKit          3D

 42 46  0  0  0  0  0  0  0  0999 V2000
  -23.1344   23.6910  -40.2852 C   0  0  0  0  0  0  0  0  0  0  0  0
  -22.7750   23.7490  -38.8097 C   0  0  0  0  0  0  0  0  0  0  0  0
  -23.1260   22.5562  -38.0949 N   0  0  0  0  0  0  0  0  0  0  0  0
  -24.4258   22.5719  -37.3978 C   0  0  0  0  0  0  0  0  0  0  0  0
  -24.3225   23.2114  -36.0579 C   0  0  0  0  0  0  0  0  0  0  0  0
  -22.3270   21.4123  -38.0259 C   0  0  0  0  0  0  0  0  0  0  0  0
  -22.8207   20.4498  -37.3056 O   0  0  0  0  0  0  0  0  0  0  0  0
  -21.0301   21.1160  -38.6225 C   0  0  0  0  0  0  0  0  0  0  0  0
  -20.9764   20.8427  -40.0564 C   0  0  0  0  0  0  0  0  0  0  0  0
  -21.6952   19.7654  -40.6097 C   0  0  0  0  0  0  0  0  0  0  0  0
  -21.6769   19.4678  -41.9452 C   0  0  0  0  0  0  0  0  0  0  0  0
  -20.9374   20.2245  -42.8360 C   0  0  0  0  0  0  0  0  0  0  0  0
  -20.2329   21.2791  -42.2975 C   0  0  0  0  0  0  0  0  0  0  0  0
  -20.2497   21.5793  -40.9578 C   0  0  0  0  0  0  0  0  0  0  0  0
  -20.3527   20.1366  -37.8128 N   0  0  0  0  0  0  0  0  0  0  0  0
  -19.6016   20.6204  -36.7140 C   0  0  0  0  0  0  0  0  0  0  0  0
  -18.4425   19.6070  -36.5529 C   0  0  0  0  0  0  0  0  0  0  0  0
  -19.1570   18.3824  -36.1512 N   0  0  0  0  0  0  0  0  0  0  0  0
  -18.6527   17.7193  -35.0316 C   0  0  0  0  0  0  0  0  0  0  0  0
  -17.3186   17.4658  -34.8653 C   0  0  0  0  0  0  0  0  0  0  0  0
  -16.8077   16.7763  -33.7656 C   0  0  0  0  0  0  0  0  0  0  0  0
  -17.6600   16.3326  -32.8137 C   0  0  0  0  0  0  0  0  0  0  0  0
  -17.2768   15.5951  -31.6637 N   0  0  0  0  0  0  0  0  0  0  0  0
  -16.4053   15.9866  -30.6425 C   0  0  0  0  0  0  0  0  0  0  0  0
  -15.9322   17.1278  -30.6287 O   0  0  0  0  0  0  0  0  0  0  0  0
  -16.0028   15.0903  -29.5494 C   0  0  0  0  0  0  0  0  0  0  0  0
  -16.3613   15.3980  -28.2598 C   0  0  0  0  0  0  0  0  0  0  0  0
  -16.0175   14.5978  -27.1828 C   0  0  0  0  0  0  0  0  0  0  0  0
  -15.2866   13.4471  -27.4122 C   0  0  0  0  0  0  0  0  0  0  0  0
  -14.9144   13.1147  -28.6896 C   0  0  0  0  0  0  0  0  0  0  0  0
  -15.2753   13.9405  -29.7573 C   0  0  0  0  0  0  0  0  0  0  0  0
  -14.8871   13.6085  -31.1126 C   0  0  0  0  0  0  0  0  0  0  0  0
  -13.5728   13.6239  -31.5392 C   0  0  0  0  0  0  0  0  0  0  0  0
  -13.2313   13.3089  -32.8336 C   0  0  0  0  0  0  0  0  0  0  0  0
  -14.2362   12.9700  -33.7205 C   0  0  0  0  0  0  0  0  0  0  0  0
  -15.5177   12.9465  -33.3368 N   0  0  0  0  0  0  0  0  0  0  0  0
  -15.8389   13.2561  -32.0706 C   0  0  0  0  0  0  0  0  0  0  0  0
  -19.0342   16.5874  -32.9709 C   0  0  0  0  0  0  0  0  0  0  0  0
  -19.5156   17.2665  -34.0585 C   0  0  0  0  0  0  0  0  0  0  0  0
  -20.8581   17.4984  -34.1821 F   0  0  0  0  0  0  0  0  0  0  0  0
  -20.2977   17.9039  -36.8550 C   0  0  0  0  0  0  0  0  0  0  0  0
  -21.1345   18.9974  -37.4792 C   0  0  0  0  0  0  0  0  0  0  0  0
  1  2  1  0
  2  3  1  0
  3  4  1  0
  4  5  1  0
  3  6  1  0
  6  7  2  0
  6  8  1  0
  8  9  1  0
  9 10  2  0
 10 11  1  0
 11 12  2  0
 12 13  1  0
 13 14  2  0
  8 15  1  0
 15 16  1  0
 16 17  1  0
 17 18  1  0
 18 19  1  0
 19 20  2  0
 20 21  1  0
 21 22  2  0
 22 23  1  0
 23 24  1  0
 24 25  2  0
 24 26  1  0
 26 27  2  0
 27 28  1  0
 28 29  2  0
 29 30  1  0
 30 31  2  0
 31 32  1  0
 32 33  2  0
 33 34  1  0
 34 35  2  0
 35 36  1  0
 36 37  2  0
 22 38  1  0
 38 39  2  0
 39 40  1  0
 18 41  1  0
 41 42  1  0
 14  9  1  0
 42 15  1  0
 39 19  1  0
 31 26  1  0
 37 32  1  0
M  END
$$$$
