
     RDKit          3D

 30 33  0  0  0  0  0  0  0  0999 V2000
  -21.6956   31.4958  -21.3495 C   0  0  0  0  0  0  0  0  0  0  0  0
  -21.6629   32.4034  -20.3031 C   0  0  0  0  0  0  0  0  0  0  0  0
  -20.9030   33.5364  -20.4863 C   0  0  0  0  0  0  0  0  0  0  0  0
  -20.1926   33.7987  -21.6350 C   0  0  0  0  0  0  0  0  0  0  0  0
  -19.3309   35.0143  -21.8130 C   0  0  0  0  0  0  0  0  0  0  0  0
  -19.3254   35.2751  -23.2558 N   0  0  0  0  0  0  0  0  0  0  0  0
  -20.5319   36.0906  -23.4909 C   0  0  0  0  0  0  0  0  0  0  0  0
  -20.3016   36.9049  -24.7769 C   0  0  0  0  0  0  0  0  0  0  0  0
  -19.3257   37.8940  -24.5039 N   0  0  0  0  0  0  0  0  0  0  0  0
  -19.7687   39.1848  -24.1479 C   0  0  0  0  0  0  0  0  0  0  0  0
  -20.3930   39.8805  -25.3332 C   0  0  0  0  0  0  0  0  0  0  0  0
  -21.5170   40.6312  -25.2028 C   0  0  0  0  0  0  0  0  0  0  0  0
  -22.0829   41.2866  -26.3180 C   0  0  0  0  0  0  0  0  0  0  0  0
  -21.5033   41.1764  -27.5621 C   0  0  0  0  0  0  0  0  0  0  0  0
  -20.3653   40.4114  -27.6710 C   0  0  0  0  0  0  0  0  0  0  0  0
  -19.8157   39.7707  -26.5742 C   0  0  0  0  0  0  0  0  0  0  0  0
  -18.7527   40.0575  -23.5269 C   0  0  0  0  0  0  0  0  0  0  0  0
  -17.6062   40.3871  -24.2111 C   0  0  0  0  0  0  0  0  0  0  0  0
  -16.6608   41.1739  -23.5903 C   0  0  0  0  0  0  0  0  0  0  0  0
  -16.8417   41.6355  -22.3028 C   0  0  0  0  0  0  0  0  0  0  0  0
  -17.9939   41.2996  -21.6272 C   0  0  0  0  0  0  0  0  0  0  0  0
  -18.9236   40.5193  -22.2548 C   0  0  0  0  0  0  0  0  0  0  0  0
  -17.9773   34.8090  -21.2641 C   0  0  0  0  0  0  0  0  0  0  0  0
  -17.7402   34.7531  -19.8899 C   0  0  0  0  0  0  0  0  0  0  0  0
  -16.4613   34.5768  -19.3724 C   0  0  0  0  0  0  0  0  0  0  0  0
  -15.3804   34.4520  -20.1945 C   0  0  0  0  0  0  0  0  0  0  0  0
  -15.5815   34.5035  -21.5613 C   0  0  0  0  0  0  0  0  0  0  0  0
  -16.8581   34.6780  -22.0607 C   0  0  0  0  0  0  0  0  0  0  0  0
  -20.2394   32.8846  -22.6638 C   0  0  0  0  0  0  0  0  0  0  0  0
  -20.9978   31.7267  -22.5132 C   0  0  0  0  0  0  0  0  0  0  0  0
  1  2  2  0
  2  3  1  0
  3  4  2  0
  4  5  1  0
  5  6  1  0
  6  7  1  0
  7  8  1  0
  8  9  1  0
  9 10  1  0
 10 11  1  0
 11 12  2  0
 12 13  1  0
 13 14  2  0
 14 15  1  0
 15 16  2  0
 10 17  1  0
 17 18  2  0
 18 19  1  0
 19 20  2  0
 20 21  1  0
 21 22  2  0
  5 23  1  0
 23 24  2  0
 24 25  1  0
 25 26  2  0
 26 27  1  0
 27 28  2  0
  4 29  1  0
 29 30  2  0
 30  1  1  0
 16 11  1  0
 22 17  1  0
 28 23  1  0
M  END
$$$$
