
     RDKit          3D

 14 15  0  0  0  0  0  0  0  0999 V2000
  -18.5884   39.8859  -22.1383 C   0  0  0  0  0  0  0  0  0  0  0  0
  -18.4087   38.3869  -22.1448 C   0  0  0  0  0  0  0  0  0  0  0  0
  -17.2073   37.9808  -21.9377 N   0  0  0  0  0  0  0  0  0  0  0  0
  -16.8010   36.3209  -21.9074 S   0  0  0  0  0  6  0  0  0  0  0  0
  -16.3420   36.0225  -20.4839 O   0  0  0  0  0  0  0  0  0  0  0  0
  -15.7218   35.9747  -22.8850 O   0  0  0  0  0  0  0  0  0  0  0  0
  -18.2599   35.4058  -22.1957 C   0  0  0  0  0  0  0  0  0  0  0  0
  -18.2296   34.0258  -22.2263 C   0  0  0  0  0  0  0  0  0  0  0  0
  -19.3725   33.2901  -22.4527 C   0  0  0  0  0  0  0  0  0  0  0  0
  -19.2945   31.5393  -22.4843 Cl  0  0  0  0  0  0  0  0  0  0  0  0
  -20.5526   33.9751  -22.6487 C   0  0  0  0  0  0  0  0  0  0  0  0
  -20.5862   35.3455  -22.6190 C   0  0  0  0  0  0  0  0  0  0  0  0
  -19.4223   36.1016  -22.3883 C   0  0  0  0  0  0  0  0  0  0  0  0
  -19.5147   37.5296  -22.3677 N   0  0  0  0  0  0  0  0  0  0  0  0
  1  2  1  0
  2  3  2  0
  3  4  1  0
  4  5  2  0
  4  6  2  0
  4  7  1  0
  7  8  2  0
  8  9  1  0
  9 10  1  0
  9 11  2  0
 11 12  1  0
 12 13  2  0
 13 14  1  0
 14  2  1  0
 13  7  1  0
M  END
$$$$
