
     RDKit          3D

 14 15  0  0  0  0  0  0  0  0999 V2000
  -15.4979   12.4493  -30.4245 C   0  0  0  0  0  0  0  0  0  0  0  0
  -14.8567   13.7058  -30.3635 O   0  0  0  0  0  0  0  0  0  0  0  0
  -14.7533   14.5129  -31.4837 C   0  0  0  0  0  0  0  0  0  0  0  0
  -13.5767   15.1550  -31.8122 C   0  0  0  0  0  0  0  0  0  0  0  0
  -13.5566   15.9419  -32.9459 C   0  0  0  0  0  0  0  0  0  0  0  0
  -14.7033   16.0729  -33.7259 C   0  0  0  0  0  0  0  0  0  0  0  0
  -15.8803   15.4383  -33.4086 C   0  0  0  0  0  0  0  0  0  0  0  0
  -15.8977   14.6470  -32.2671 C   0  0  0  0  0  0  0  0  0  0  0  0
  -17.1668   15.4661  -34.1105 C   0  0  0  0  0  0  0  0  0  0  0  0
  -17.5888   16.7668  -34.5313 N   0  0  0  0  0  0  0  0  0  0  0  0
  -19.0370   16.7572  -34.6389 C   0  0  0  0  0  0  0  0  0  0  0  0
  -17.0447   17.0891  -35.8302 C   0  0  0  0  0  0  0  0  0  0  0  0
  -15.8203   17.9538  -35.7485 C   0  0  0  0  0  0  0  0  0  0  0  0
  -14.3814   17.1334  -35.1022 S   0  0  0  0  0  0  0  0  0  0  0  0
  1  2  1  0
  2  3  1  0
  3  4  2  0
  4  5  1  0
  5  6  2  0
  6  7  1  0
  7  8  2  0
  7  9  1  0
  9 10  1  0
 10 11  1  0
 10 12  1  0
 12 13  1  0
 13 14  1  0
  8  3  1  0
 14  6  1  0
M  END
$$$$
