
     RDKit          3D

 22 23  0  0  0  0  0  0  0  0999 V2000
  -20.2865   39.4191  -25.1512 Cl  0  0  0  0  0  0  0  0  0  0  0  0
  -17.8139   38.0900  -19.6091 O   0  0  0  0  0  0  0  0  0  0  0  0
  -17.9517   38.5983  -20.7416 C   0  0  0  0  0  0  0  0  0  0  0  0
  -17.6746   39.8719  -21.0303 N   0  0  0  0  0  0  0  0  0  0  0  0
  -17.8275   40.3999  -22.2497 C   0  0  0  0  0  0  0  0  0  0  0  0
  -18.2932   39.6348  -23.3025 C   0  0  0  0  0  0  0  0  0  0  0  0
  -18.5970   38.3133  -23.0614 C   0  0  0  0  0  0  0  0  0  0  0  0
  -19.0422   37.5273  -24.1132 C   0  0  0  0  0  0  0  0  0  0  0  0
  -19.3657   38.2082  -25.6607 S   0  0  0  0  0  6  0  0  0  0  0  0
  -19.5536   37.0122  -26.6107 O   0  0  0  0  0  0  0  0  0  0  0  0
  -18.1592   38.8969  -26.2635 O   0  0  0  0  0  0  0  0  0  0  0  0
  -20.7820   39.1029  -25.7986 N   0  0  0  0  0  0  0  0  0  0  0  0
  -21.0092   40.2534  -25.0432 C   0  0  0  0  0  0  0  0  0  0  0  0
  -22.4000   40.7999  -25.3955 C   0  0  0  0  0  0  0  0  0  0  0  0
  -22.3003   41.5465  -26.6792 C   0  0  0  0  0  0  0  0  0  0  0  0
  -20.9518   41.6139  -27.2050 N   0  0  0  0  0  0  0  0  0  0  0  0
  -20.5586   40.3692  -27.8359 C   0  0  0  0  0  0  0  0  0  0  0  0
  -21.2213   39.1797  -27.1788 C   0  0  0  0  0  0  0  0  0  0  0  0
  -19.3187   36.1734  -23.8714 C   0  0  0  0  0  0  0  0  0  0  0  0
  -19.1424   35.6781  -22.6058 C   0  0  0  0  0  0  0  0  0  0  0  0
  -18.7034   36.4626  -21.5630 C   0  0  0  0  0  0  0  0  0  0  0  0
  -18.4247   37.7864  -21.7717 C   0  0  0  0  0  0  0  0  0  0  0  0
  2  3  2  0
  3  4  1  0
  4  5  1  0
  5  6  2  0
  6  7  1  0
  7  8  2  0
  8  9  1  0
  9 10  2  0
  9 11  2  0
  9 12  1  0
 12 13  1  0
 13 14  1  0
 14 15  1  0
 15 16  1  0
 16 17  1  0
 17 18  1  0
  8 19  1  0
 19 20  2  0
 20 21  1  0
 21 22  2  0
 22  3  1  0
 22  7  1  0
 18 12  1  0
M  END
$$$$
