
     RDKit          3D

 23 26  0  0  0  0  0  0  0  0999 V2000
  -15.7422   16.6917  -38.1883 O   0  0  0  0  0  0  0  0  0  0  0  0
  -15.3777   17.4803  -37.3076 C   0  0  0  0  0  0  0  0  0  0  0  0
  -13.9656   17.7040  -37.1680 N   0  0  0  0  0  0  0  0  0  0  0  0
  -13.0574   17.5449  -38.2450 C   0  0  0  0  0  0  0  0  0  0  0  0
  -13.4384   17.6713  -39.5507 C   0  0  0  0  0  0  0  0  0  0  0  0
  -12.5418   17.5134  -40.5898 C   0  0  0  0  0  0  0  0  0  0  0  0
  -11.2246   17.2206  -40.3251 C   0  0  0  0  0  0  0  0  0  0  0  0
  -10.3401   17.0655  -41.3675 F   0  0  0  0  0  0  0  0  0  0  0  0
  -10.8120   17.0873  -39.0157 C   0  0  0  0  0  0  0  0  0  0  0  0
   -9.5109   16.7990  -38.7772 F   0  0  0  0  0  0  0  0  0  0  0  0
  -11.7373   17.2518  -37.9864 C   0  0  0  0  0  0  0  0  0  0  0  0
  -11.2732   17.1089  -36.7233 F   0  0  0  0  0  0  0  0  0  0  0  0
  -16.3190   18.1428  -36.4626 N   0  0  0  0  0  0  0  0  0  0  0  0
  -17.4510   17.4282  -35.9221 C   0  0  0  0  0  0  0  0  0  0  0  0
  -18.7310   18.2031  -35.9736 C   0  0  0  0  0  0  0  0  0  0  0  0
  -19.8520   17.3301  -35.4857 C   0  0  0  0  0  0  0  0  0  0  0  0
  -19.6717   16.8867  -34.0644 C   0  0  0  0  0  0  0  0  0  0  0  0
  -18.3251   16.1879  -33.9756 C   0  0  0  0  0  0  0  0  0  0  0  0
  -18.4538   14.9011  -34.7567 C   0  0  0  0  0  0  0  0  0  0  0  0
  -18.7174   15.2764  -36.1964 C   0  0  0  0  0  0  0  0  0  0  0  0
  -19.9704   16.1074  -36.3510 C   0  0  0  0  0  0  0  0  0  0  0  0
  -17.5601   16.1053  -36.6723 C   0  0  0  0  0  0  0  0  0  0  0  0
  -17.2099   17.0570  -34.4624 C   0  0  0  0  0  0  0  0  0  0  0  0
  1  2  2  0
  2  3  1  0
  3  4  1  0
  4  5  2  0
  5  6  1  0
  6  7  2  0
  7  8  1  0
  7  9  1  0
  9 10  1  0
  9 11  2  0
 11 12  1  0
  2 13  1  0
 13 14  1  0
 14 15  1  0
 15 16  1  0
 16 17  1  0
 17 18  1  0
 18 19  1  0
 19 20  1  0
 20 21  1  0
 20 22  1  0
 18 23  1  0
 11  4  1  0
 22 14  1  0
 23 14  1  0
 21 16  1  0
M  END
$$$$
