
     RDKit          3D

 18 19  0  0  0  0  0  0  0  0999 V2000
  -20.5858    2.4025  -31.9675 C   0  0  0  0  0  0  0  0  0  0  0  0
  -19.5923    1.2330  -31.7455 C   0  0  0  0  0  0  0  0  0  0  0  0
  -18.9162    0.9257  -33.0891 C   0  0  0  0  0  0  0  0  0  0  0  0
  -17.8962   -0.0621  -33.0060 N   0  0  0  0  0  0  0  0  0  0  0  0
  -17.8031   -0.6340  -34.3940 C   0  0  0  0  0  0  0  0  0  0  0  0
  -17.8573    0.3909  -35.4491 C   0  0  0  0  0  0  0  0  0  0  0  0
  -18.6533   -0.2203  -36.6153 C   0  0  0  0  0  0  0  0  0  0  0  0
  -16.5667    0.4405  -32.8334 C   0  0  0  0  0  0  0  0  0  0  0  0
  -16.5141    1.9178  -33.2218 C   0  0  0  0  0  0  0  0  0  0  0  0
  -15.4943    2.5395  -32.2890 C   0  0  0  0  0  0  0  0  0  0  0  0
  -14.3034    1.6544  -32.2289 C   0  0  0  0  0  0  0  0  0  0  0  0
  -13.2152    2.2074  -31.5323 C   0  0  0  0  0  0  0  0  0  0  0  0
  -12.0741    1.4777  -31.4154 C   0  0  0  0  0  0  0  0  0  0  0  0
  -11.9533    0.2247  -31.9544 C   0  0  0  0  0  0  0  0  0  0  0  0
  -13.0456   -0.2958  -32.6362 C   0  0  0  0  0  0  0  0  0  0  0  0
  -13.0027   -1.5555  -33.2133 O   0  0  0  0  0  0  0  0  0  0  0  0
  -14.2149    0.3991  -32.7792 C   0  0  0  0  0  0  0  0  0  0  0  0
  -15.4187   -0.1832  -33.5129 C   0  0  0  0  0  0  0  0  0  0  0  0
  1  2  1  0
  2  3  1  0
  3  4  1  0
  4  5  1  0
  5  6  1  0
  6  7  1  0
  4  8  1  0
  8  9  1  0
  9 10  1  0
 10 11  1  0
 11 12  2  0
 12 13  1  0
 13 14  2  0
 14 15  1  0
 15 16  1  0
 15 17  2  0
 17 18  1  0
 18  8  1  0
 17 11  1  0
M  END
$$$$
