
     RDKit          3D

 26 29  0  0  0  0  0  0  0  0999 V2000
  -17.0429   35.8433  -21.1316 C   0  0  0  0  0  0  0  0  0  0  0  0
  -17.7501   36.1346  -22.3677 C   0  0  0  0  0  0  0  0  0  0  0  0
  -17.9501   37.4727  -22.7232 C   0  0  0  0  0  0  0  0  0  0  0  0
  -17.6122   38.6679  -22.1343 C   0  0  0  0  0  0  0  0  0  0  0  0
  -17.0016   38.7986  -21.0660 O   0  0  0  0  0  0  0  0  0  0  0  0
  -18.0513   39.6508  -22.9041 N   0  0  0  0  0  0  0  0  0  0  0  0
  -17.9277   41.0758  -22.6909 C   0  0  0  0  0  0  0  0  0  0  0  0
  -17.0106   41.8465  -23.3704 C   0  0  0  0  0  0  0  0  0  0  0  0
  -16.9056   43.2127  -23.1533 C   0  0  0  0  0  0  0  0  0  0  0  0
  -17.7187   43.8547  -22.2451 C   0  0  0  0  0  0  0  0  0  0  0  0
  -18.6393   43.0917  -21.5606 C   0  0  0  0  0  0  0  0  0  0  0  0
  -18.7405   41.7179  -21.7829 C   0  0  0  0  0  0  0  0  0  0  0  0
  -19.9170   40.7479  -20.9070 Cl  0  0  0  0  0  0  0  0  0  0  0  0
  -18.6502   39.1354  -23.9503 N   0  0  0  0  0  0  0  0  0  0  0  0
  -18.6141   37.8049  -23.8846 C   0  0  0  0  0  0  0  0  0  0  0  0
  -19.0903   36.7876  -24.7115 C   0  0  0  0  0  0  0  0  0  0  0  0
  -18.8694   35.4930  -24.3195 C   0  0  0  0  0  0  0  0  0  0  0  0
  -19.3088   34.5833  -25.0825 O   0  0  0  0  0  0  0  0  0  0  0  0
  -18.2081   35.1785  -23.1629 N   0  0  0  0  0  0  0  0  0  0  0  0
  -18.0601   33.7787  -22.8884 C   0  0  0  0  0  0  0  0  0  0  0  0
  -19.1497   33.2414  -21.9993 C   0  0  0  0  0  0  0  0  0  0  0  0
  -20.2594   33.9849  -21.6718 C   0  0  0  0  0  0  0  0  0  0  0  0
  -21.2649   33.5035  -20.8655 C   0  0  0  0  0  0  0  0  0  0  0  0
  -21.1530   32.2229  -20.3664 C   0  0  0  0  0  0  0  0  0  0  0  0
  -20.0254   31.5285  -20.7259 C   0  0  0  0  0  0  0  0  0  0  0  0
  -19.0511   31.9966  -21.5080 N   0  0  0  0  0  0  0  0  0  0  0  0
  1  2  1  0
  2  3  2  0
  3  4  1  0
  4  5  2  0
  4  6  1  0
  6  7  1  0
  7  8  2  0
  8  9  1  0
  9 10  2  0
 10 11  1  0
 11 12  2  0
 12 13  1  0
  6 14  1  0
 14 15  1  0
 15 16  2  0
 16 17  1  0
 17 18  2  0
 17 19  1  0
 19 20  1  0
 20 21  1  0
 21 22  2  0
 22 23  1  0
 23 24  2  0
 24 25  1  0
 25 26  2  0
 19  2  1  0
 26 21  1  0
 15  3  1  0
 12  7  1  0
M  END
$$$$
