
     RDKit          3D

 13 13  0  0  0  0  0  0  0  0999 V2000
  -20.5983   38.8079  -24.6571 C   0  0  0  0  0  0  0  0  0  0  0  0
  -19.2049   38.6553  -24.6417 O   0  0  0  0  0  0  0  0  0  0  0  0
  -18.5713   37.9534  -23.6451 C   0  0  0  0  0  0  0  0  0  0  0  0
  -18.4965   36.5781  -23.6589 C   0  0  0  0  0  0  0  0  0  0  0  0
  -17.8664   35.8881  -22.6669 C   0  0  0  0  0  0  0  0  0  0  0  0
  -17.7469   34.4263  -22.6143 C   0  0  0  0  0  0  0  0  0  0  0  0
  -18.9185   33.7155  -22.1498 C   0  0  0  0  0  0  0  0  0  0  0  0
  -19.9916   34.2923  -21.8807 O   0  0  0  0  0  0  0  0  0  0  0  0
  -18.8871   32.3481  -21.9858 O   0  0  0  0  0  0  0  0  0  0  0  0
  -17.2996   36.6163  -21.6374 C   0  0  0  0  0  0  0  0  0  0  0  0
  -17.3539   37.9924  -21.5890 C   0  0  0  0  0  0  0  0  0  0  0  0
  -17.9980   38.6639  -22.6065 C   0  0  0  0  0  0  0  0  0  0  0  0
  -18.0494   40.0591  -22.5512 O   0  0  0  0  0  0  0  0  0  0  0  0
  1  2  1  0
  2  3  1  0
  3  4  2  0
  4  5  1  0
  5  6  1  0
  6  7  1  0
  7  8  2  0
  7  9  1  0
  5 10  2  0
 10 11  1  0
 11 12  2  0
 12 13  1  0
 12  3  1  0
M  END
$$$$
