
     RDKit          3D

 17 18  0  0  0  0  0  0  0  0999 V2000
  -10.5970    0.8041  -33.4234 C   0  0  0  0  0  0  0  0  0  0  0  0
  -11.2056   -0.4183  -32.9339 N   0  0  0  0  0  0  0  0  0  0  0  0
  -10.3489   -1.5506  -32.7094 C   0  0  0  0  0  0  0  0  0  0  0  0
  -12.6047   -0.4658  -32.6896 C   0  0  0  0  0  0  0  0  0  0  0  0
  -13.1035   -1.2610  -31.6740 C   0  0  0  0  0  0  0  0  0  0  0  0
  -14.4677   -1.3096  -31.4332 C   0  0  0  0  0  0  0  0  0  0  0  0
  -15.3686   -0.5800  -32.1826 C   0  0  0  0  0  0  0  0  0  0  0  0
  -16.7811   -0.7150  -31.8821 C   0  0  0  0  0  0  0  0  0  0  0  0
  -17.6905   -0.1076  -32.5842 C   0  0  0  0  0  0  0  0  0  0  0  0
  -17.4474    0.8399  -34.1262 S   0  0  0  0  0  0  0  0  0  0  0  0
  -18.9279    1.8177  -33.9174 C   0  0  0  0  0  0  0  0  0  0  0  0
  -19.1361    2.9391  -34.3784 O   0  0  0  0  0  0  0  0  0  0  0  0
  -19.7601    1.0094  -33.1236 N   0  0  0  0  0  0  0  0  0  0  0  0
  -19.1315   -0.0137  -32.4120 C   0  0  0  0  0  0  0  0  0  0  0  0
  -19.7467   -0.8460  -31.6424 O   0  0  0  0  0  0  0  0  0  0  0  0
  -14.8514    0.2036  -33.1880 C   0  0  0  0  0  0  0  0  0  0  0  0
  -13.4842    0.2593  -33.4373 C   0  0  0  0  0  0  0  0  0  0  0  0
  1  2  1  0
  2  3  1  0
  2  4  1  0
  4  5  2  0
  5  6  1  0
  6  7  2  0
  7  8  1  0
  8  9  2  0
  9 10  1  0
 10 11  1  0
 11 12  2  0
 11 13  1  0
 13 14  1  0
 14 15  2  0
  7 16  1  0
 16 17  2  0
 17  4  1  0
 14  9  1  0
M  END
$$$$
