
     RDKit          3D

 22 25  0  0  0  0  0  0  0  0999 V2000
  -11.8200   13.6710  -32.4108 C   0  0  0  0  0  0  0  0  0  0  0  0
  -13.1761   13.9811  -31.8795 C   0  0  0  0  0  0  0  0  0  0  0  0
  -13.9654   12.8814  -31.5522 C   0  0  0  0  0  0  0  0  0  0  0  0
  -15.2302   13.1146  -31.0552 C   0  0  0  0  0  0  0  0  0  0  0  0
  -15.6488   14.4235  -30.9077 C   0  0  0  0  0  0  0  0  0  0  0  0
  -14.8701   15.5228  -31.2309 C   0  0  0  0  0  0  0  0  0  0  0  0
  -15.3424   16.8947  -31.0674 C   0  0  0  0  0  0  0  0  0  0  0  0
  -14.6619   17.9554  -30.5833 N   0  0  0  0  0  0  0  0  0  0  0  0
  -15.4135   19.0366  -30.5720 N   0  0  0  0  0  0  0  0  0  0  0  0
  -16.6213   18.7377  -31.0476 C   0  0  0  0  0  0  0  0  0  0  0  0
  -16.6056   17.3731  -31.3732 C   0  0  0  0  0  0  0  0  0  0  0  0
  -17.7414   16.6833  -31.9287 C   0  0  0  0  0  0  0  0  0  0  0  0
  -18.2852   15.6059  -31.2889 C   0  0  0  0  0  0  0  0  0  0  0  0
  -19.3865   14.9205  -31.8136 C   0  0  0  0  0  0  0  0  0  0  0  0
  -19.8812   15.4044  -33.0120 C   0  0  0  0  0  0  0  0  0  0  0  0
  -20.9408   14.8081  -33.5940 N   0  0  0  0  0  0  0  0  0  0  0  0
  -21.4892   15.2028  -34.7507 C   0  0  0  0  0  0  0  0  0  0  0  0
  -20.9580   16.2861  -35.4131 C   0  0  0  0  0  0  0  0  0  0  0  0
  -19.8760   16.9354  -34.8681 C   0  0  0  0  0  0  0  0  0  0  0  0
  -19.3306   16.4979  -33.6629 C   0  0  0  0  0  0  0  0  0  0  0  0
  -18.2733   17.0940  -33.0846 N   0  0  0  0  0  0  0  0  0  0  0  0
  -13.6344   15.2244  -31.7157 N   0  0  0  0  0  0  0  0  0  0  0  0
  1  2  1  0
  2  3  2  0
  3  4  1  0
  4  5  2  0
  5  6  1  0
  6  7  1  0
  7  8  2  0
  8  9  1  0
  9 10  1  0
 10 11  2  0
 11 12  1  0
 12 13  2  0
 13 14  1  0
 14 15  2  0
 15 16  1  0
 16 17  2  0
 17 18  1  0
 18 19  2  0
 19 20  1  0
 20 21  2  0
  6 22  2  0
 22  2  1  0
 11  7  1  0
 21 12  1  0
 20 15  1  0
M  END
$$$$
