
     RDKit          3D

 35 35  0  0  0  0  0  0  0  0999 V2000
  -30.7670   20.8646  -29.4701 C   0  0  0  0  0  0  0  0  0  0  0  0
  -29.3379   20.3746  -29.6703 C   0  0  0  0  0  0  0  0  0  0  0  0
  -28.4127   21.4430  -29.1382 C   0  0  0  0  0  0  0  0  0  0  0  0
  -26.9873   21.0283  -29.3207 C   0  0  0  0  0  0  0  0  0  0  0  0
  -26.0070   22.0090  -28.7728 C   0  0  0  0  0  0  0  0  0  0  0  0
  -24.5980   21.5091  -28.7568 C   0  0  0  0  0  0  0  0  0  0  0  0
  -23.7164   22.0315  -29.8316 C   0  0  0  0  0  0  0  0  0  0  0  0
  -22.2829   21.5660  -29.7680 C   0  0  0  0  0  0  0  0  0  0  0  0
  -21.4350   22.2261  -30.8346 C   0  0  0  0  0  0  0  0  0  0  0  0
  -21.3290   21.4058  -32.0694 C   0  0  0  0  0  0  0  0  0  0  0  0
  -19.9083   20.7939  -32.0904 C   0  0  0  0  0  0  0  0  0  0  0  0
  -19.7284   19.9994  -33.3525 C   0  0  1  0  0  0  0  0  0  0  0  0
  -19.6427   20.8689  -34.5411 C   0  0  0  0  0  0  0  0  0  0  0  0
  -20.5904   20.5507  -35.6282 C   0  0  2  0  0  0  0  0  0  0  0  0
  -20.3474   19.4165  -36.4311 O   0  0  0  0  0  0  0  0  0  0  0  0
  -20.8950   20.1082  -37.4956 C   0  0  0  0  0  0  0  0  0  0  0  0
  -21.5026   19.7766  -38.5277 O   0  0  0  0  0  0  0  0  0  0  0  0
  -20.4345   21.3610  -36.8488 C   0  0  1  0  0  0  0  0  0  0  0  0
  -21.3653   22.5408  -37.0539 C   0  0  0  0  0  0  0  0  0  0  0  0
  -22.6826   22.1560  -37.6136 C   0  0  0  0  0  0  0  0  0  0  0  0
  -23.6544   23.2945  -37.5273 C   0  0  0  0  0  0  0  0  0  0  0  0
  -24.9886   22.8493  -38.0637 C   0  0  0  0  0  0  0  0  0  0  0  0
  -26.0165   23.9714  -37.9880 C   0  0  0  0  0  0  0  0  0  0  0  0
  -27.3081   23.3550  -38.5220 C   0  0  0  0  0  0  0  0  0  0  0  0
  -18.5289   19.2241  -33.2537 O   0  0  0  0  0  0  0  0  0  0  0  0
  -18.2995   18.2036  -34.1312 C   0  0  0  0  0  0  0  0  0  0  0  0
  -19.1815   17.9022  -34.9844 O   0  0  0  0  0  0  0  0  0  0  0  0
  -16.9988   17.4470  -34.0702 C   0  0  2  0  0  0  0  0  0  0  0  0
  -17.1772   16.4653  -32.9440 C   0  0  0  0  0  0  0  0  0  0  0  0
  -17.6009   15.0968  -33.3182 C   0  0  0  0  0  0  0  0  0  0  0  0
  -18.7456   14.5572  -32.5041 C   0  0  0  0  0  0  0  0  0  0  0  0
  -18.0671   15.1739  -34.7842 C   0  0  0  0  0  0  0  0  0  0  0  0
  -15.9790   18.4265  -33.7918 N   0  0  0  0  0  0  0  0  0  0  0  0
  -15.9177   19.1694  -32.5915 C   0  0  0  0  0  0  0  0  0  0  0  0
  -16.7689   18.9867  -31.6887 O   0  0  0  0  0  0  0  0  0  0  0  0
  1  2  1  0
  2  3  1  0
  3  4  1  0
  4  5  1  0
  5  6  1  0
  6  7  1  0
  7  8  1  0
  8  9  1  0
  9 10  1  0
 10 11  1  0
 12 11  1  1
 12 13  1  0
 14 13  1  1
 14 15  1  0
 15 16  1  0
 16 17  2  0
 16 18  1  0
 18 19  1  1
 19 20  1  0
 20 21  1  0
 21 22  1  0
 22 23  1  0
 23 24  1  0
 12 25  1  0
 25 26  1  0
 26 27  2  0
 26 28  1  0
 28 29  1  1
 29 30  1  0
 30 31  1  0
 30 32  1  0
 28 33  1  0
 33 34  1  0
 34 35  2  0
 18 14  1  0
M  END
$$$$
