
     RDKit          3D

 30 32  0  0  0  0  0  0  0  0999 V2000
  -23.7558   20.4044  -31.4548 C   0  0  0  0  0  0  0  0  0  0  0  0
  -23.5720   20.8055  -30.1122 O   0  0  0  0  0  0  0  0  0  0  0  0
  -24.3851   20.3095  -29.0854 C   0  0  0  0  0  0  0  0  0  0  0  0
  -24.2170   20.7058  -27.7776 C   0  0  0  0  0  0  0  0  0  0  0  0
  -25.0105   20.2240  -26.7635 C   0  0  0  0  0  0  0  0  0  0  0  0
  -24.8402   20.6262  -25.4357 O   0  0  0  0  0  0  0  0  0  0  0  0
  -25.8484   20.3160  -24.4940 C   0  0  0  0  0  0  0  0  0  0  0  0
  -25.9730   19.3374  -27.0965 N   0  0  0  0  0  0  0  0  0  0  0  0
  -26.1525   18.9387  -28.3664 C   0  0  0  0  0  0  0  0  0  0  0  0
  -27.1594   18.0294  -28.6203 O   0  0  0  0  0  0  0  0  0  0  0  0
  -28.0253   17.5705  -27.5553 C   0  0  2  0  0  0  0  0  0  0  0  0
  -27.8361   16.1006  -27.4688 C   0  0  0  0  0  0  0  0  0  0  0  0
  -27.8090   15.2936  -28.4047 O   0  0  0  0  0  0  0  0  0  0  0  0
  -27.6649   15.5219  -26.1910 O   0  0  0  0  0  0  0  0  0  0  0  0
  -29.4293   17.7587  -28.1673 C   0  0  0  0  0  0  0  0  0  0  0  0
  -29.2857   17.3106  -29.4320 O   0  0  0  0  0  0  0  0  0  0  0  0
  -30.2657   17.3806  -30.3445 C   0  0  0  0  0  0  0  0  0  0  0  0
  -30.4862   17.2639  -27.3154 C   0  0  0  0  0  0  0  0  0  0  0  0
  -30.5385   17.5548  -25.9696 C   0  0  0  0  0  0  0  0  0  0  0  0
  -31.5597   17.0885  -25.1378 C   0  0  0  0  0  0  0  0  0  0  0  0
  -32.5568   16.3075  -25.6785 C   0  0  0  0  0  0  0  0  0  0  0  0
  -32.4982   16.0230  -27.0212 C   0  0  0  0  0  0  0  0  0  0  0  0
  -31.4930   16.4830  -27.8361 C   0  0  0  0  0  0  0  0  0  0  0  0
  -29.6378   19.2651  -28.2513 C   0  0  0  0  0  0  0  0  0  0  0  0
  -29.4209   19.9201  -29.4381 C   0  0  0  0  0  0  0  0  0  0  0  0
  -29.6060   21.2922  -29.5644 C   0  0  0  0  0  0  0  0  0  0  0  0
  -30.0150   21.9910  -28.4663 C   0  0  0  0  0  0  0  0  0  0  0  0
  -30.2384   21.3627  -27.2704 C   0  0  0  0  0  0  0  0  0  0  0  0
  -30.0489   19.9882  -27.1594 C   0  0  0  0  0  0  0  0  0  0  0  0
  -25.3609   19.4220  -29.3642 N   0  0  0  0  0  0  0  0  0  0  0  0
  1  2  1  0
  2  3  1  0
  3  4  2  0
  4  5  1  0
  5  6  1  0
  6  7  1  0
  5  8  2  0
  8  9  1  0
  9 10  1  0
 11 10  1  6
 11 12  1  0
 12 13  2  0
 12 14  1  0
 11 15  1  0
 15 16  1  0
 16 17  1  0
 15 18  1  0
 18 19  2  0
 19 20  1  0
 20 21  2  0
 21 22  1  0
 22 23  2  0
 15 24  1  0
 24 25  2  0
 25 26  1  0
 26 27  2  0
 27 28  1  0
 28 29  2  0
  9 30  2  0
 30  3  1  0
 23 18  1  0
 29 24  1  0
M  END
$$$$
