
     RDKit          3D

 28 31  0  0  0  0  0  0  0  0999 V2000
  -13.5147   25.0844  -14.3078 C   0  0  0  0  0  0  0  0  0  0  0  0
  -13.9236   23.9254  -13.4388 C   0  0  0  0  0  0  0  0  0  0  0  0
  -13.2184   22.9169  -13.5234 O   0  0  0  0  0  0  0  0  0  0  0  0
  -14.9676   23.9313  -12.6145 O   0  0  0  0  0  0  0  0  0  0  0  0
  -15.5621   22.9454  -11.8774 C   0  0  2  0  0  0  0  0  0  0  0  0
  -16.2741   22.0983  -12.9451 C   0  0  0  0  0  0  0  0  0  0  0  0
  -17.1110   22.7488  -13.9780 C   0  0  0  0  0  0  0  0  0  0  0  0
  -16.1561   20.9054  -12.9488 O   0  0  0  0  0  0  0  0  0  0  0  0
  -16.5134   23.2727  -10.8154 C   0  0  0  0  0  0  0  0  0  0  0  0
  -16.0377   22.5972   -9.5230 C   0  0  0  0  0  0  0  0  0  0  0  0
  -14.6081   22.3492   -9.7882 C   0  0  1  0  0  0  0  0  0  0  0  0
  -13.9712   21.2196   -8.9853 C   0  0  2  0  0  0  0  0  0  0  0  0
  -13.8972   21.6753   -7.5705 C   0  0  0  0  0  0  0  0  0  0  0  0
  -12.8980   21.3014   -6.7825 C   0  0  0  0  0  0  0  0  0  0  0  0
  -12.8265   21.7632   -5.3550 C   0  0  0  0  0  0  0  0  0  0  0  0
  -11.8494   20.4305   -7.2987 C   0  0  0  0  0  0  0  0  0  0  0  0
  -10.9175   19.9834   -6.4736 C   0  0  0  0  0  0  0  0  0  0  0  0
   -9.8752   19.1217   -6.9713 C   0  0  0  0  0  0  0  0  0  0  0  0
   -9.1185   18.5689   -6.1362 O   0  0  0  0  0  0  0  0  0  0  0  0
   -9.6902   18.8857   -8.4262 C   0  0  0  0  0  0  0  0  0  0  0  0
  -10.4438   19.8653   -9.2645 C   0  0  0  0  0  0  0  0  0  0  0  0
  -11.8540   20.0643   -8.7507 C   0  0  1  0  0  0  0  0  0  0  0  0
  -12.5691   18.7383   -8.8709 C   0  0  0  0  0  0  0  0  0  0  0  0
  -12.5367   21.1669   -9.4847 C   0  0  1  0  0  0  0  0  0  0  0  0
  -12.3607   21.0942  -10.9479 C   0  0  0  0  0  0  0  0  0  0  0  0
  -13.2078   22.0664  -11.7172 C   0  0  0  0  0  0  0  0  0  0  0  0
  -14.6104   21.9670  -11.2416 C   0  0  2  0  0  0  0  0  0  0  0  0
  -15.0441   20.5274  -11.4286 C   0  0  0  0  0  0  0  0  0  0  0  0
  1  2  1  0
  2  3  2  0
  2  4  1  0
  5  4  1  6
  5  6  1  0
  6  7  1  0
  6  8  2  0
  5  9  1  0
  9 10  1  0
 11 10  1  1
 11 12  1  0
 12 13  1  1
 13 14  2  0
 14 15  1  0
 14 16  1  0
 16 17  2  0
 17 18  1  0
 18 19  2  0
 18 20  1  0
 20 21  1  0
 21 22  1  0
 22 23  1  1
 22 24  1  0
 24 25  1  6
 25 26  1  0
 26 27  1  0
 27 28  1  1
 27  5  1  0
 27 11  1  0
 24 12  1  0
 22 16  1  0
M  END
$$$$
