
     RDKit          3D

 30 34  0  0  0  0  0  0  0  0999 V2000
  -15.5984   45.7933  -22.6287 C   0  0  0  0  0  0  0  0  0  0  0  0
  -15.1855   44.3757  -22.9564 C   0  0  0  0  0  0  0  0  0  0  0  0
  -16.1655   43.4575  -22.2693 C   0  0  0  0  0  0  0  0  0  0  0  0
  -17.3806   43.1261  -22.7866 C   0  0  0  0  0  0  0  0  0  0  0  0
  -18.2523   42.2507  -22.1278 C   0  0  0  0  0  0  0  0  0  0  0  0
  -17.8738   41.7182  -20.9375 C   0  0  0  0  0  0  0  0  0  0  0  0
  -18.8989   40.6622  -19.9877 S   0  0  0  0  0  6  0  0  0  0  0  0
  -20.3432   40.8457  -20.2186 O   0  0  0  0  0  0  0  0  0  0  0  0
  -18.5752   41.0040  -18.5213 O   0  0  0  0  0  0  0  0  0  0  0  0
  -18.3289   39.0246  -20.3439 C   0  0  0  0  0  0  0  0  0  0  0  0
  -17.3948   38.3385  -19.6764 N   0  0  0  0  0  0  0  0  0  0  0  0
  -17.1882   37.1950  -20.2806 N   0  0  0  0  0  0  0  0  0  0  0  0
  -17.9612   37.0928  -21.3416 N   0  0  0  0  0  0  0  0  0  0  0  0
  -18.6793   38.2026  -21.4122 C   0  0  0  0  0  0  0  0  0  0  0  0
  -19.5340   38.4937  -22.4077 N   0  0  0  0  0  0  0  0  0  0  0  0
  -19.6655   37.5789  -23.4281 C   0  0  0  0  0  0  0  0  0  0  0  0
  -20.2614   37.7477  -24.6118 N   0  0  0  0  0  0  0  0  0  0  0  0
  -20.8868   37.9248  -25.8538 C   0  0  0  0  0  0  0  0  0  0  0  0
  -20.8884   39.3933  -26.1437 C   0  0  0  0  0  0  0  0  0  0  0  0
  -21.8191   40.3387  -26.0978 C   0  0  0  0  0  0  0  0  0  0  0  0
  -21.5485   41.6078  -26.4488 C   0  0  0  0  0  0  0  0  0  0  0  0
  -20.2470   41.8902  -26.8650 C   0  0  0  0  0  0  0  0  0  0  0  0
  -19.4102   40.2692  -26.7328 S   0  0  0  0  0  0  0  0  0  0  0  0
  -18.8911   36.4146  -23.3146 C   0  0  0  0  0  0  0  0  0  0  0  0
  -18.7952   34.9780  -24.4490 S   0  0  0  0  0  0  0  0  0  0  0  0
  -17.5257   34.0745  -23.3886 C   0  0  0  0  0  0  0  0  0  0  0  0
  -17.3564   34.9422  -22.3637 C   0  0  0  0  0  0  0  0  0  0  0  0
  -18.0264   36.0966  -22.3189 C   0  0  0  0  0  0  0  0  0  0  0  0
  -16.6397   42.0366  -20.3863 C   0  0  0  0  0  0  0  0  0  0  0  0
  -15.8078   42.8908  -21.0442 C   0  0  0  0  0  0  0  0  0  0  0  0
  1  2  1  0
  2  3  1  0
  3  4  2  0
  4  5  1  0
  5  6  2  0
  6  7  1  0
  7  8  2  0
  7  9  2  0
  7 10  1  0
 10 11  1  0
 11 12  2  0
 12 13  1  0
 13 14  1  0
 14 15  1  0
 15 16  2  0
 16 17  1  0
 17 18  1  0
 18 19  1  0
 19 20  2  0
 20 21  1  0
 21 22  2  0
 22 23  1  0
 16 24  1  0
 24 25  1  0
 25 26  1  0
 26 27  2  0
 27 28  1  0
  6 29  1  0
 29 30  2  0
 30  3  1  0
 14 10  2  0
 23 19  1  0
 28 24  2  0
 28 13  1  0
M  END
$$$$
