
     RDKit          3D

 27 30  0  0  0  0  0  0  0  0999 V2000
  -21.1599   31.6152  -21.2514 C   0  0  0  0  0  0  0  0  0  0  0  0
  -20.1876   32.5767  -21.1106 O   0  0  0  0  0  0  0  0  0  0  0  0
  -19.8413   33.2265  -22.2672 C   0  0  0  0  0  0  0  0  0  0  0  0
  -19.9484   34.7244  -22.0353 C   0  0  0  0  0  0  0  0  0  0  0  0
  -18.6375   35.3238  -22.4978 C   0  0  0  0  0  0  0  0  0  0  0  0
  -18.6425   36.7724  -22.4350 N   0  0  0  0  0  0  0  0  0  0  0  0
  -18.0869   37.4953  -21.4482 C   0  0  0  0  0  0  0  0  0  0  0  0
  -17.3968   37.0240  -20.2900 N   0  0  0  0  0  0  0  0  0  0  0  0
  -18.3177   38.8187  -21.7788 C   0  0  0  0  0  0  0  0  0  0  0  0
  -17.8805   39.9540  -20.9759 C   0  0  0  0  0  0  0  0  0  0  0  0
  -17.3478   39.7756  -19.8435 O   0  0  0  0  0  0  0  0  0  0  0  0
  -18.0161   41.2977  -21.3926 N   0  0  0  0  0  0  0  0  0  0  0  0
  -17.5697   42.4216  -20.5975 C   0  0  0  0  0  0  0  0  0  0  0  0
  -16.0882   42.4610  -20.4180 C   0  0  0  0  0  0  0  0  0  0  0  0
  -15.8686   43.8823  -19.8955 C   0  0  0  0  0  0  0  0  0  0  0  0
  -16.7554   44.6641  -20.8447 C   0  0  0  0  0  0  0  0  0  0  0  0
  -17.9160   43.7470  -21.1717 C   0  0  0  0  0  0  0  0  0  0  0  0
  -19.0069   38.8491  -22.9574 C   0  0  0  0  0  0  0  0  0  0  0  0
  -19.4869   39.8459  -23.7304 N   0  0  0  0  0  0  0  0  0  0  0  0
  -20.1487   39.5924  -24.8758 C   0  0  0  0  0  0  0  0  0  0  0  0
  -20.6428   40.6077  -25.6718 C   0  0  0  0  0  0  0  0  0  0  0  0
  -21.3234   40.3294  -26.8506 C   0  0  0  0  0  0  0  0  0  0  0  0
  -21.5336   39.0336  -27.2741 C   0  0  0  0  0  0  0  0  0  0  0  0
  -21.0416   38.0201  -26.4815 C   0  0  0  0  0  0  0  0  0  0  0  0
  -20.3599   38.2969  -25.3011 C   0  0  0  0  0  0  0  0  0  0  0  0
  -19.8792   37.3084  -24.5263 N   0  0  0  0  0  0  0  0  0  0  0  0
  -19.2122   37.5497  -23.3725 C   0  0  0  0  0  0  0  0  0  0  0  0
  1  2  1  0
  2  3  1  0
  3  4  1  0
  4  5  1  0
  5  6  1  0
  6  7  1  0
  7  8  1  0
  7  9  2  0
  9 10  1  0
 10 11  2  0
 10 12  1  0
 12 13  1  0
 13 14  1  0
 14 15  1  0
 15 16  1  0
 16 17  1  0
  9 18  1  0
 18 19  2  0
 19 20  1  0
 20 21  2  0
 21 22  1  0
 22 23  2  0
 23 24  1  0
 24 25  2  0
 25 26  1  0
 26 27  2  0
 27  6  1  0
 17 13  1  0
 27 18  1  0
 25 20  1  0
M  END
$$$$
