
     RDKit          3D

 34 38  0  0  0  0  0  0  0  0999 V2000
  -26.0956   10.9047  -15.2480 C   0  0  0  0  0  0  0  0  0  0  0  0
  -25.7239   11.3343  -16.5978 N   0  0  0  0  0  0  0  0  0  0  0  0
  -25.5097   12.7556  -16.5356 C   0  0  0  0  0  0  0  0  0  0  0  0
  -24.8841   13.2525  -17.8206 C   0  0  0  0  0  0  0  0  0  0  0  0
  -23.5043   12.6495  -17.9760 C   0  0  0  0  0  0  0  0  0  0  0  0
  -23.1219   12.4982  -19.3663 N   0  0  0  0  0  0  0  0  0  0  0  0
  -22.5350   13.5845  -20.0849 C   0  0  0  0  0  0  0  0  0  0  0  0
  -22.0483   14.6479  -19.4495 N   0  0  0  0  0  0  0  0  0  0  0  0
  -21.4853   15.6955  -20.0987 C   0  0  0  0  0  0  0  0  0  0  0  0
  -20.9642   16.8316  -19.4380 N   0  0  0  0  0  0  0  0  0  0  0  0
  -20.8274   16.9164  -18.0015 C   0  0  0  0  0  0  0  0  0  0  0  0
  -20.4473   15.8305  -17.2623 C   0  0  0  0  0  0  0  0  0  0  0  0
  -20.3291   15.9522  -15.9005 C   0  0  0  0  0  0  0  0  0  0  0  0
  -20.5758   17.1273  -15.2226 C   0  0  0  0  0  0  0  0  0  0  0  0
  -20.4392   17.1869  -13.8482 O   0  0  0  0  0  0  0  0  0  0  0  0
  -19.3725   17.8419  -13.2717 C   0  0  0  0  0  0  0  0  0  0  0  0
  -18.1861   18.0067  -13.9401 C   0  0  0  0  0  0  0  0  0  0  0  0
  -17.1111   18.6747  -13.3406 C   0  0  0  0  0  0  0  0  0  0  0  0
  -17.2613   19.1720  -12.0522 C   0  0  0  0  0  0  0  0  0  0  0  0
  -18.4485   19.0132  -11.3693 C   0  0  0  0  0  0  0  0  0  0  0  0
  -19.5012   18.3404  -11.9996 C   0  0  0  0  0  0  0  0  0  0  0  0
  -20.9567   18.2049  -15.9891 C   0  0  0  0  0  0  0  0  0  0  0  0
  -21.0816   18.1047  -17.3578 C   0  0  0  0  0  0  0  0  0  0  0  0
  -21.4390   15.6069  -21.4785 C   0  0  0  0  0  0  0  0  0  0  0  0
  -20.8921   16.6034  -22.2694 C   0  0  0  0  0  0  0  0  0  0  0  0
  -20.4247   17.6170  -21.7167 O   0  0  0  0  0  0  0  0  0  0  0  0
  -20.8389   16.5343  -23.6072 N   0  0  0  0  0  0  0  0  0  0  0  0
  -21.3209   15.4763  -24.2746 C   0  0  0  0  0  0  0  0  0  0  0  0
  -21.8773   14.4538  -23.5342 C   0  0  0  0  0  0  0  0  0  0  0  0
  -22.5615   12.9514  -24.4860 Br  0  0  0  0  0  0  0  0  0  0  0  0
  -21.9416   14.5059  -22.1569 C   0  0  0  0  0  0  0  0  0  0  0  0
  -22.4805   13.5164  -21.4340 N   0  0  0  0  0  0  0  0  0  0  0  0
  -23.3436   11.3682  -17.2292 C   0  0  0  0  0  0  0  0  0  0  0  0
  -24.6292   10.5807  -17.1220 C   0  0  0  0  0  0  0  0  0  0  0  0
  1  2  1  0
  2  3  1  0
  3  4  1  0
  4  5  1  0
  5  6  1  0
  6  7  1  0
  7  8  2  0
  8  9  1  0
  9 10  1  0
 10 11  1  0
 11 12  2  0
 12 13  1  0
 13 14  2  0
 14 15  1  0
 15 16  1  0
 16 17  2  0
 17 18  1  0
 18 19  2  0
 19 20  1  0
 20 21  2  0
 14 22  1  0
 22 23  2  0
  9 24  2  0
 24 25  1  0
 25 26  2  0
 25 27  1  0
 27 28  1  0
 28 29  2  0
 29 30  1  0
 29 31  1  0
 31 32  2  0
  5 33  1  0
 33 34  1  0
 34  2  1  0
 32  7  1  0
 23 11  1  0
 31 24  1  0
 21 16  1  0
M  END
$$$$
