
     RDKit          3D

 23 26  0  0  0  0  0  0  0  0999 V2000
  -17.1194   43.9352  -21.6846 C   0  0  0  0  0  0  0  0  0  0  0  0
  -17.4204   42.5613  -21.3557 N   0  0  0  0  0  0  0  0  0  0  0  0
  -17.3034   42.0444  -20.0397 N   0  0  0  0  0  0  0  0  0  0  0  0
  -17.5812   40.7952  -19.7622 C   0  0  0  0  0  0  0  0  0  0  0  0
  -17.4618   40.2852  -18.4432 N   0  0  0  0  0  0  0  0  0  0  0  0
  -18.0288   39.8701  -20.8102 C   0  0  0  0  0  0  0  0  0  0  0  0
  -18.4001   38.5487  -20.9180 C   0  0  0  0  0  0  0  0  0  0  0  0
  -18.7199   38.2937  -22.2243 N   0  0  0  0  0  0  0  0  0  0  0  0
  -19.1514   37.0602  -22.7646 C   0  0  2  0  0  0  0  0  0  0  0  0
  -19.2097   36.0256  -21.8136 O   0  0  0  0  0  0  0  0  0  0  0  0
  -19.5667   34.9456  -22.6190 C   0  0  2  0  0  0  0  0  0  0  0  0
  -19.2752   33.6234  -21.9456 C   0  0  0  0  0  0  0  0  0  0  0  0
  -18.6749   33.8229  -20.7114 O   0  0  0  0  0  0  0  0  0  0  0  0
  -18.8047   35.0665  -23.9013 C   0  0  1  0  0  0  0  0  0  0  0  0
  -19.7430   35.1902  -24.9429 O   0  0  0  0  0  0  0  0  0  0  0  0
  -18.1775   36.4574  -23.7538 C   0  0  1  0  0  0  0  0  0  0  0  0
  -18.1307   37.1325  -24.9473 O   0  0  0  0  0  0  0  0  0  0  0  0
  -18.5513   39.4294  -22.9112 C   0  0  0  0  0  0  0  0  0  0  0  0
  -18.6944   39.8345  -24.2090 N   0  0  0  0  0  0  0  0  0  0  0  0
  -18.4261   41.1128  -24.5755 C   0  0  0  0  0  0  0  0  0  0  0  0
  -18.0035   42.0603  -23.6884 N   0  0  0  0  0  0  0  0  0  0  0  0
  -17.8505   41.7013  -22.4024 C   0  0  0  0  0  0  0  0  0  0  0  0
  -18.1239   40.4240  -22.0637 C   0  0  0  0  0  0  0  0  0  0  0  0
  1  2  1  0
  2  3  1  0
  3  4  2  0
  4  5  1  0
  4  6  1  0
  6  7  2  0
  7  8  1  0
  9  8  1  1
  9 10  1  0
 10 11  1  0
 11 12  1  1
 12 13  1  0
 11 14  1  0
 14 15  1  6
 14 16  1  0
 16 17  1  6
  8 18  1  0
 18 19  1  0
 19 20  2  0
 20 21  1  0
 21 22  2  0
 22 23  1  0
 22  2  1  0
 23  6  1  0
 16  9  1  0
 23 18  2  0
M  END
$$$$
