
     RDKit          3D

 15 16  0  0  0  0  0  0  0  0999 V2000
  -20.7506   36.7759  -22.1541 N   0  0  0  0  0  0  0  0  0  0  0  0
  -19.3426   36.7220  -22.4974 C   0  0  1  0  0  0  0  0  0  0  0  0
  -19.1144   37.6135  -23.6510 C   0  0  0  0  0  0  0  0  0  0  0  0
  -19.1286   37.1621  -24.8146 O   0  0  0  0  0  0  0  0  0  0  0  0
  -18.8830   38.9565  -23.4530 O   0  0  0  0  0  0  0  0  0  0  0  0
  -18.5430   37.2360  -21.3472 C   0  0  0  0  0  0  0  0  0  0  0  0
  -16.9715   36.3892  -21.5034 S   0  0  0  0  0  6  0  0  0  0  0  0
  -16.5588   35.9023  -20.1666 O   0  0  0  0  0  0  0  0  0  0  0  0
  -15.9566   37.2129  -22.1962 O   0  0  0  0  0  0  0  0  0  0  0  0
  -17.5381   35.0598  -22.5529 C   0  0  1  0  0  0  0  0  0  0  0  0
  -18.6600   34.2642  -21.9285 C   0  0  2  0  0  0  0  0  0  0  0  0
  -18.7380   32.8632  -22.4320 C   0  0  0  0  0  0  0  0  0  0  0  0
  -19.0625   31.9277  -21.6519 O   0  0  0  0  0  0  0  0  0  0  0  0
  -18.4663   32.5175  -23.7474 O   0  0  0  0  0  0  0  0  0  0  0  0
  -18.9274   35.3536  -22.8556 C   0  0  1  0  0  0  0  0  0  0  0  0
  2  1  1  1
  2  3  1  0
  3  4  2  0
  3  5  1  0
  2  6  1  0
  6  7  1  0
  7  8  2  0
  7  9  2  0
 10  7  1  1
 10 11  1  0
 11 12  1  6
 12 13  2  0
 12 14  1  0
 11 15  1  0
 15  2  1  1
 15 10  1  0
M  END
$$$$
