
     RDKit          3D

 32 35  0  0  0  0  0  0  0  0999 V2000
  -24.7565   19.5888  -27.1722 O   0  0  0  0  0  0  0  0  0  0  0  0
  -25.7668   18.8386  -26.9841 C   0  0  0  0  0  0  0  0  0  0  0  0
  -26.7523   18.9219  -27.9680 O   0  0  0  0  0  0  0  0  0  0  0  0
  -28.1134   19.0493  -27.7107 C   0  0  2  0  0  0  0  0  0  0  0  0
  -28.8985   18.2086  -28.6581 C   0  0  0  0  0  0  0  0  0  0  0  0
  -30.3201   18.5587  -28.7864 C   0  0  0  0  0  0  0  0  0  0  0  0
  -31.0960   17.8180  -29.6399 C   0  0  0  0  0  0  0  0  0  0  0  0
  -30.5956   16.7575  -30.3832 O   0  0  0  0  0  0  0  0  0  0  0  0
  -32.4490   18.1553  -29.7581 C   0  0  0  0  0  0  0  0  0  0  0  0
  -32.9975   19.1992  -29.0430 C   0  0  0  0  0  0  0  0  0  0  0  0
  -34.3550   19.4947  -29.1977 O   0  0  0  0  0  0  0  0  0  0  0  0
  -32.2006   19.9296  -28.1920 C   0  0  0  0  0  0  0  0  0  0  0  0
  -30.8452   19.5980  -28.0683 C   0  0  0  0  0  0  0  0  0  0  0  0
  -30.0141   20.3128  -27.2203 O   0  0  0  0  0  0  0  0  0  0  0  0
  -28.6231   20.4468  -27.5727 C   0  0  2  0  0  0  0  0  0  0  0  0
  -28.5029   21.3083  -28.7382 C   0  0  0  0  0  0  0  0  0  0  0  0
  -28.4372   20.7351  -29.9902 C   0  0  0  0  0  0  0  0  0  0  0  0
  -28.3214   21.4915  -31.1457 C   0  0  0  0  0  0  0  0  0  0  0  0
  -28.2678   22.8698  -31.0668 C   0  0  0  0  0  0  0  0  0  0  0  0
  -28.1505   23.6286  -32.2415 O   0  0  0  0  0  0  0  0  0  0  0  0
  -28.3319   23.4591  -29.8272 C   0  0  0  0  0  0  0  0  0  0  0  0
  -28.2774   24.8421  -29.7587 O   0  0  0  0  0  0  0  0  0  0  0  0
  -28.4488   22.6765  -28.6727 C   0  0  0  0  0  0  0  0  0  0  0  0
  -25.8771   17.9690  -25.8356 C   0  0  0  0  0  0  0  0  0  0  0  0
  -26.4546   16.7335  -25.9628 C   0  0  0  0  0  0  0  0  0  0  0  0
  -26.5777   15.8676  -24.8743 C   0  0  0  0  0  0  0  0  0  0  0  0
  -27.1607   14.6150  -24.9929 O   0  0  0  0  0  0  0  0  0  0  0  0
  -26.0958   16.3017  -23.6632 C   0  0  0  0  0  0  0  0  0  0  0  0
  -26.1968   15.4760  -22.5570 O   0  0  0  0  0  0  0  0  0  0  0  0
  -25.5049   17.5430  -23.4912 C   0  0  0  0  0  0  0  0  0  0  0  0
  -25.0331   17.9363  -22.2467 O   0  0  0  0  0  0  0  0  0  0  0  0
  -25.4054   18.3751  -24.6155 C   0  0  0  0  0  0  0  0  0  0  0  0
  1  2  2  0
  2  3  1  0
  4  3  1  6
  4  5  1  0
  5  6  1  0
  6  7  2  0
  7  8  1  0
  7  9  1  0
  9 10  2  0
 10 11  1  0
 10 12  1  0
 12 13  2  0
 13 14  1  0
 14 15  1  0
 15 16  1  6
 16 17  2  0
 17 18  1  0
 18 19  2  0
 19 20  1  0
 19 21  1  0
 21 22  1  0
 21 23  2  0
  2 24  1  0
 24 25  2  0
 25 26  1  0
 26 27  1  0
 26 28  2  0
 28 29  1  0
 28 30  1  0
 30 31  1  0
 30 32  2  0
 15  4  1  0
 23 16  1  0
 32 24  1  0
 13  6  1  0
M  END
$$$$
