
     RDKit          3D

 18 18  0  0  0  0  0  0  0  0999 V2000
  -19.1825   38.5087  -24.0974 Cl  0  0  0  0  0  0  0  0  0  0  0  0
  -19.1799   38.5068  -24.0935 Cl  0  0  0  0  0  0  0  0  0  0  0  0
  -16.5863   36.4509  -21.3620 C   0  0  0  0  0  0  0  0  0  0  0  0
  -17.2714   35.5297  -22.1291 C   0  0  0  0  0  0  0  0  0  0  0  0
  -18.1791   35.9182  -23.0922 C   0  0  0  0  0  0  0  0  0  0  0  0
  -18.4370   37.2680  -23.3247 C   0  0  0  0  0  0  0  0  0  0  0  0
  -19.3253   37.6543  -24.2669 N   0  0  0  0  0  0  0  0  0  0  0  0
  -19.5882   38.9720  -24.5059 C   0  0  0  0  0  0  0  0  0  0  0  0
  -20.5182   39.3781  -25.4927 N   0  0  0  0  0  0  0  0  0  0  0  0
  -20.7456   40.7937  -25.6802 C   0  0  0  0  0  0  0  0  0  0  0  0
  -21.9521   41.0675  -26.5463 C   0  0  0  0  0  0  0  0  0  0  0  0
  -21.8640   40.3713  -27.7883 N   0  0  0  0  0  0  0  0  0  0  0  0
  -21.3093   39.0569  -27.7371 C   0  0  0  0  0  0  0  0  0  0  0  0
  -21.2681   38.4802  -26.3393 C   0  0  0  0  0  0  0  0  0  0  0  0
  -18.8863   39.8609  -23.7219 C   0  0  0  0  0  0  0  0  0  0  0  0
  -17.9877   39.5106  -22.7673 C   0  0  0  0  0  0  0  0  0  0  0  0
  -17.7444   38.1692  -22.5503 C   0  0  0  0  0  0  0  0  0  0  0  0
  -16.8434   37.7853  -21.5942 C   0  0  0  0  0  0  0  0  0  0  0  0
  3  4  2  0
  4  5  1  0
  5  6  2  0
  6  7  1  0
  7  8  2  0
  8  9  1  0
  9 10  1  0
 10 11  1  0
 11 12  1  0
 12 13  1  0
 13 14  1  0
  8 15  1  0
 15 16  2  0
 16 17  1  0
 17 18  2  0
 18  3  1  0
 17  6  1  0
 14  9  1  0
M  END
$$$$
