
     RDKit          3D

  9  9  0  0  0  0  0  0  0  0999 V2000
  -19.3553   34.7487  -22.6078 O   0  0  0  0  0  0  0  0  0  0  0  0
  -18.0802   35.4356  -22.4364 B   0  0  0  0  0  0  0  0  0  0  0  0
  -16.8680   34.6873  -22.8061 O   0  0  0  0  0  0  0  0  0  0  0  0
  -18.0092   36.9825  -22.5879 C   0  0  0  0  0  0  0  0  0  0  0  0
  -16.8792   37.6801  -22.2260 C   0  0  0  0  0  0  0  0  0  0  0  0
  -16.8123   39.0722  -22.3610 C   0  0  0  0  0  0  0  0  0  0  0  0
  -17.8831   39.7806  -22.8626 C   0  0  0  0  0  0  0  0  0  0  0  0
  -19.0086   39.0781  -23.2222 C   0  0  0  0  0  0  0  0  0  0  0  0
  -19.0728   37.6914  -23.0867 C   0  0  0  0  0  0  0  0  0  0  0  0
  1  2  1  0
  2  3  1  0
  2  4  1  0
  4  5  2  0
  5  6  1  0
  6  7  2  0
  7  8  1  0
  8  9  2  0
  9  4  1  0
M  END
$$$$
