
     RDKit          3D

  9  9  0  0  0  0  0  0  0  0999 V2000
  -19.4728   42.2206  -21.0823 N   0  0  0  0  0  0  0  0  0  0  0  0
  -18.6590   43.3346  -20.7603 C   0  0  0  0  0  0  0  0  0  0  0  0
  -19.1416   44.4812  -20.5729 O   0  0  0  0  0  0  0  0  0  0  0  0
  -17.1996   43.1568  -20.6382 C   0  0  0  0  0  0  0  0  0  0  0  0
  -16.4072   44.1538  -20.1090 C   0  0  0  0  0  0  0  0  0  0  0  0
  -15.0236   43.9775  -19.9966 C   0  0  0  0  0  0  0  0  0  0  0  0
  -14.4346   42.7904  -20.4194 C   0  0  0  0  0  0  0  0  0  0  0  0
  -15.2239   41.7905  -20.9494 C   0  0  0  0  0  0  0  0  0  0  0  0
  -16.5811   42.0014  -21.0436 C   0  0  0  0  0  0  0  0  0  0  0  0
  1  2  1  0
  2  3  2  0
  2  4  1  0
  4  5  2  0
  5  6  1  0
  6  7  2  0
  7  8  1  0
  8  9  2  0
  9  4  1  0
M  END
$$$$
