
     RDKit          3D

 15 16  0  0  0  0  0  0  0  0999 V2000
  -18.3603   14.4626  -32.6318 C   0  0  0  0  0  0  0  0  0  0  0  0
  -19.3010   15.5681  -32.9991 C   0  0  0  0  0  0  0  0  0  0  0  0
  -20.6498   15.4089  -33.0000 C   0  0  0  0  0  0  0  0  0  0  0  0
  -21.5500   16.4182  -33.3368 C   0  0  0  0  0  0  0  0  0  0  0  0
  -22.9614   16.1011  -33.2924 C   0  0  0  0  0  0  0  0  0  0  0  0
  -23.2991   15.1157  -34.4130 C   0  0  0  0  0  0  0  0  0  0  0  0
  -24.8211   15.2173  -34.5690 C   0  0  0  0  0  0  0  0  0  0  0  0
  -25.5085   14.8323  -33.3087 C   0  0  0  0  0  0  0  0  0  0  0  0
  -24.9537   15.4287  -32.0686 C   0  0  0  0  0  0  0  0  0  0  0  0
  -23.4522   15.4906  -32.0176 C   0  0  0  0  0  0  0  0  0  0  0  0
  -21.0070   17.5816  -33.6678 N   0  0  0  0  0  0  0  0  0  0  0  0
  -21.8439   18.6115  -34.0085 O   0  0  0  0  0  0  0  0  0  0  0  0
  -19.6829   17.7863  -33.6815 C   0  0  0  0  0  0  0  0  0  0  0  0
  -19.1818   18.8987  -33.9986 O   0  0  0  0  0  0  0  0  0  0  0  0
  -18.7677   16.7868  -33.3471 C   0  0  0  0  0  0  0  0  0  0  0  0
  1  2  1  0
  2  3  1  0
  3  4  2  0
  4  5  1  0
  5  6  1  0
  6  7  1  0
  7  8  1  0
  8  9  1  0
  9 10  1  0
  4 11  1  0
 11 12  1  0
 11 13  1  0
 13 14  2  0
 13 15  1  0
 15  2  2  0
 10  5  1  0
M  END
$$$$
