
     RDKit          3D

 39 43  0  0  0  0  0  0  0  0999 V2000
  -24.1752    9.4097  -23.0860 C   0  0  0  0  0  0  0  0  0  0  0  0
  -24.5651   10.3499  -24.1987 C   0  0  0  0  0  0  0  0  0  0  0  0
  -25.2034   11.5177  -24.0447 N   0  0  0  0  0  0  0  0  0  0  0  0
  -25.3864   12.0915  -25.2761 C   0  0  0  0  0  0  0  0  0  0  0  0
  -24.8131   11.1776  -26.1382 C   0  0  0  0  0  0  0  0  0  0  0  0
  -24.3129   10.1203  -25.5005 N   0  0  0  0  0  0  0  0  0  0  0  0
  -24.7548   11.3258  -27.5940 C   0  0  0  0  0  0  0  0  0  0  0  0
  -24.0666   10.3313  -28.2245 C   0  0  0  0  0  0  0  0  0  0  0  0
  -23.9755   10.3668  -29.6060 C   0  0  0  0  0  0  0  0  0  0  0  0
  -24.5452   11.3534  -30.3614 C   0  0  0  0  0  0  0  0  0  0  0  0
  -25.2401   12.3615  -29.7534 C   0  0  0  0  0  0  0  0  0  0  0  0
  -25.3395   12.3418  -28.3686 C   0  0  0  0  0  0  0  0  0  0  0  0
  -26.0651   13.4650  -27.8859 N   0  0  0  0  0  0  0  0  0  0  0  0
  -25.8696   14.6977  -28.5551 C   0  0  0  0  0  0  0  0  0  0  0  0
  -24.9783   14.8296  -29.4104 O   0  0  0  0  0  0  0  0  0  0  0  0
  -26.6950   15.8741  -28.2832 C   0  0  0  0  0  0  0  0  0  0  0  0
  -28.0431   15.9441  -28.4204 C   0  0  0  0  0  0  0  0  0  0  0  0
  -28.6934   17.1316  -28.1316 C   0  0  0  0  0  0  0  0  0  0  0  0
  -28.0251   18.2509  -27.7085 C   0  0  0  0  0  0  0  0  0  0  0  0
  -28.7458   19.4343  -27.4316 N   0  0  0  0  0  0  0  0  0  0  0  0
  -28.9913   20.4194  -28.4662 C   0  0  0  0  0  0  0  0  0  0  0  0
  -28.5108   20.1113  -29.5749 O   0  0  0  0  0  0  0  0  0  0  0  0
  -29.7309   21.6375  -28.1946 C   0  0  0  0  0  0  0  0  0  0  0  0
  -30.5356   21.7349  -27.0507 C   0  0  0  0  0  0  0  0  0  0  0  0
  -31.2087   22.8876  -26.7501 C   0  0  0  0  0  0  0  0  0  0  0  0
  -31.1319   24.0065  -27.5511 C   0  0  0  0  0  0  0  0  0  0  0  0
  -30.3470   23.9066  -28.6664 C   0  0  0  0  0  0  0  0  0  0  0  0
  -29.6428   22.7309  -29.0009 C   0  0  0  0  0  0  0  0  0  0  0  0
  -28.8814   22.7143  -30.2408 C   0  0  0  0  0  0  0  0  0  0  0  0
  -27.7651   23.5028  -30.3493 C   0  0  0  0  0  0  0  0  0  0  0  0
  -27.0038   23.5867  -31.5124 C   0  0  0  0  0  0  0  0  0  0  0  0
  -27.4254   22.8257  -32.5828 C   0  0  0  0  0  0  0  0  0  0  0  0
  -28.5457   22.0334  -32.4771 C   0  0  0  0  0  0  0  0  0  0  0  0
  -29.2903   21.9666  -31.3038 C   0  0  0  0  0  0  0  0  0  0  0  0
  -26.6619   18.1991  -27.5635 C   0  0  0  0  0  0  0  0  0  0  0  0
  -25.9970   16.9991  -27.8544 C   0  0  0  0  0  0  0  0  0  0  0  0
  -26.9465   13.4345  -26.7106 C   0  0  0  0  0  0  0  0  0  0  0  0
  -26.0614   13.4005  -25.4668 C   0  0  0  0  0  0  0  0  0  0  0  0
  -26.7992   16.0944  -27.7977 Cl  0  0  0  0  0  0  0  0  0  0  0  0
  1  2  1  0
  2  3  2  0
  3  4  1  0
  4  5  2  0
  5  6  1  0
  5  7  1  0
  7  8  2  0
  8  9  1  0
  9 10  2  0
 10 11  1  0
 11 12  2  0
 12 13  1  0
 13 14  1  0
 14 15  2  0
 14 16  1  0
 16 17  2  0
 17 18  1  0
 18 19  2  0
 19 20  1  0
 20 21  1  0
 21 22  2  0
 21 23  1  0
 23 24  2  0
 24 25  1  0
 25 26  2  0
 26 27  1  0
 27 28  2  0
 28 29  1  0
 29 30  2  0
 30 31  1  0
 31 32  2  0
 32 33  1  0
 33 34  2  0
 19 35  1  0
 35 36  2  0
 13 37  1  0
 37 38  1  0
  6  2  1  0
 12  7  1  0
 36 16  1  0
 38  4  1  0
 28 23  1  0
 34 29  1  0
M  END
$$$$
