
     RDKit          3D

 16 17  0  0  0  0  0  0  0  0999 V2000
  -19.6802   38.0018  -25.6256 C   0  0  0  0  0  0  0  0  0  0  0  0
  -19.5526   38.6571  -24.3767 O   0  0  0  0  0  0  0  0  0  0  0  0
  -18.9641   37.9346  -23.3462 C   0  0  0  0  0  0  0  0  0  0  0  0
  -18.5841   36.6498  -23.4686 N   0  0  0  0  0  0  0  0  0  0  0  0
  -18.0122   35.9658  -22.4497 C   0  0  0  0  0  0  0  0  0  0  0  0
  -17.6251   34.5489  -22.6788 C   0  0  0  0  0  0  0  0  0  0  0  0
  -17.8158   36.5890  -21.2734 N   0  0  0  0  0  0  0  0  0  0  0  0
  -18.1664   37.8756  -21.0627 C   0  0  0  0  0  0  0  0  0  0  0  0
  -17.8964   38.6612  -19.5140 Cl  0  0  0  0  0  0  0  0  0  0  0  0
  -18.7495   38.5494  -22.1245 C   0  0  0  0  0  0  0  0  0  0  0  0
  -19.1278   39.8973  -21.9360 N   0  0  0  0  0  0  0  0  0  0  0  0
  -18.6444   40.9272  -22.8247 C   0  0  0  0  0  0  0  0  0  0  0  0
  -19.0710   42.1353  -22.8554 N   0  0  0  0  0  0  0  0  0  0  0  0
  -18.4211   42.9525  -23.8319 C   0  0  0  0  0  0  0  0  0  0  0  0
  -17.4206   42.0541  -24.4920 C   0  0  0  0  0  0  0  0  0  0  0  0
  -17.6324   40.8062  -23.8087 N   0  0  0  0  0  0  0  0  0  0  0  0
  1  2  1  0
  2  3  1  0
  3  4  2  0
  4  5  1  0
  5  6  1  0
  5  7  2  0
  7  8  1  0
  8  9  1  0
  8 10  2  0
 10 11  1  0
 11 12  1  0
 12 13  2  0
 13 14  1  0
 14 15  1  0
 15 16  1  0
 10  3  1  0
 16 12  1  0
M  END
$$$$
