
     RDKit          3D

 38 42  0  0  0  0  0  0  0  0999 V2000
  -23.5081   37.6357  -24.3478 N   0  0  0  0  0  0  0  0  0  0  0  0
  -22.5306   37.3341  -23.8679 C   0  0  0  0  0  0  0  0  0  0  0  0
  -21.2494   36.9498  -23.2663 C   0  0  0  0  0  0  0  0  0  0  0  0
  -21.1785   35.7169  -22.6058 C   0  0  0  0  0  0  0  0  0  0  0  0
  -20.0262   35.3743  -22.0179 N   0  0  0  0  0  0  0  0  0  0  0  0
  -18.9314   36.1542  -22.0289 C   0  0  0  0  0  0  0  0  0  0  0  0
  -17.7666   35.7811  -21.3977 C   0  0  0  0  0  0  0  0  0  0  0  0
  -17.7221   34.2340  -20.5831 Cl  0  0  0  0  0  0  0  0  0  0  0  0
  -16.6365   36.6101  -21.3990 C   0  0  0  0  0  0  0  0  0  0  0  0
  -16.6371   37.8227  -22.0231 C   0  0  0  0  0  0  0  0  0  0  0  0
  -15.5676   38.7323  -22.0148 N   0  0  0  0  0  0  0  0  0  0  0  0
  -15.5754   40.0024  -22.6813 C   0  0  0  0  0  0  0  0  0  0  0  0
  -16.3467   40.9616  -21.8404 C   0  0  0  0  0  0  0  0  0  0  0  0
  -17.5199   41.6042  -22.0997 C   0  0  0  0  0  0  0  0  0  0  0  0
  -17.8303   42.4392  -21.1074 N   0  0  0  0  0  0  0  0  0  0  0  0
  -19.0028   43.2855  -20.9132 C   0  0  0  0  0  0  0  0  0  0  0  0
  -18.7127   44.6775  -21.3948 C   0  0  0  0  0  0  0  0  0  0  0  0
  -17.6809   45.2982  -20.6759 N   0  0  0  0  0  0  0  0  0  0  0  0
  -17.9716   45.9446  -19.4522 C   0  0  0  0  0  0  0  0  0  0  0  0
  -18.4031   47.3896  -19.6241 C   0  0  0  0  0  0  0  0  0  0  0  0
  -17.4547   48.2297  -20.4101 C   0  0  0  0  0  0  0  0  0  0  0  0
  -17.7484   48.0971  -21.8762 C   0  0  0  0  0  0  0  0  0  0  0  0
  -17.1934   46.8460  -22.5050 C   0  0  0  0  0  0  0  0  0  0  0  0
  -16.6415   45.8863  -21.4774 C   0  0  0  0  0  0  0  0  0  0  0  0
  -16.8461   42.3259  -20.2103 N   0  0  0  0  0  0  0  0  0  0  0  0
  -15.9550   41.4523  -20.6264 N   0  0  0  0  0  0  0  0  0  0  0  0
  -17.8445   38.1772  -22.6633 C   0  0  0  0  0  0  0  0  0  0  0  0
  -18.9538   37.3842  -22.6726 C   0  0  0  0  0  0  0  0  0  0  0  0
  -20.1428   37.7339  -23.2786 C   0  0  0  0  0  0  0  0  0  0  0  0
  -20.1519   38.9788  -23.9814 N   0  0  0  0  0  0  0  0  0  0  0  0
  -20.3768   38.8567  -25.3912 C   0  0  0  0  0  0  0  0  0  0  0  0
  -20.4599   39.9572  -26.2048 C   0  0  0  0  0  0  0  0  0  0  0  0
  -20.6936   39.8465  -27.5640 C   0  0  0  0  0  0  0  0  0  0  0  0
  -20.8450   38.5892  -28.0986 C   0  0  0  0  0  0  0  0  0  0  0  0
  -21.0789   38.4755  -29.4507 F   0  0  0  0  0  0  0  0  0  0  0  0
  -20.7697   37.4671  -27.3228 C   0  0  0  0  0  0  0  0  0  0  0  0
  -20.9648   35.9087  -28.0911 Cl  0  0  0  0  0  0  0  0  0  0  0  0
  -20.5324   37.6225  -25.9598 C   0  0  0  0  0  0  0  0  0  0  0  0
  1  2  3  0
  2  3  1  0
  3  4  2  0
  4  5  1  0
  5  6  2  0
  6  7  1  0
  7  8  1  0
  7  9  2  0
  9 10  1  0
 10 11  1  0
 11 12  1  0
 12 13  1  0
 13 14  2  0
 14 15  1  0
 15 16  1  0
 16 17  1  0
 17 18  1  0
 18 19  1  0
 19 20  1  0
 20 21  1  0
 21 22  1  0
 22 23  1  0
 23 24  1  0
 15 25  1  0
 25 26  2  0
 10 27  2  0
 27 28  1  0
 28 29  2  0
 29 30  1  0
 30 31  1  0
 31 32  2  0
 32 33  1  0
 33 34  2  0
 34 35  1  0
 34 36  1  0
 36 37  1  0
 36 38  2  0
 29  3  1  0
 38 31  1  0
 28  6  1  0
 26 13  1  0
 24 18  1  0
M  END
$$$$
