
     RDKit          3D

 25 26  0  0  0  0  0  0  0  0999 V2000
  -23.9974   15.1974  -32.6335 C   0  0  0  0  0  0  0  0  0  0  0  0
  -23.2939   15.8038  -33.8309 C   0  0  0  0  0  0  0  0  0  0  0  0
  -24.0855   16.9519  -34.4203 C   0  0  0  0  0  0  0  0  0  0  0  0
  -21.9721   16.1978  -33.4085 N   0  0  2  0  0  4  0  0  0  0  0  0
  -22.0953   17.0782  -32.2927 C   0  0  0  0  0  0  0  0  0  0  0  0
  -21.1686   16.7193  -34.4888 C   0  0  0  0  0  0  0  0  0  0  0  0
  -21.0553   15.5073  -35.4015 C   0  0  0  0  0  0  0  0  0  0  0  0
  -21.0484   14.3433  -34.4743 C   0  0  0  0  0  0  0  0  0  0  0  0
  -21.2514   14.9692  -33.0989 C   0  0  1  0  0  0  0  0  0  0  0  0
  -19.9136   15.1981  -32.5009 C   0  0  0  0  0  0  0  0  0  0  0  0
  -19.2998   16.5315  -32.8112 C   0  0  1  0  0  0  0  0  0  0  0  0
  -17.8884   16.4087  -32.8750 O   0  0  0  0  0  0  0  0  0  0  0  0
  -17.0028   16.9649  -31.9908 C   0  0  0  0  0  0  0  0  0  0  0  0
  -17.4919   17.6416  -31.0434 O   0  0  0  0  0  0  0  0  0  0  0  0
  -15.5355   16.8208  -32.0810 C   0  0  0  0  0  0  0  0  0  0  0  0
  -15.0506   17.4875  -33.3471 C   0  0  0  0  0  0  0  0  0  0  0  0
  -15.6002   16.9436  -34.4949 O   0  0  0  0  0  0  0  0  0  0  0  0
  -15.1468   15.3907  -32.0053 C   0  0  0  0  0  0  0  0  0  0  0  0
  -14.2940   14.9329  -31.0225 C   0  0  0  0  0  0  0  0  0  0  0  0
  -13.9456   13.6011  -30.9687 C   0  0  0  0  0  0  0  0  0  0  0  0
  -14.4600   12.7401  -31.9070 C   0  0  0  0  0  0  0  0  0  0  0  0
  -15.3111   13.2082  -32.8845 C   0  0  0  0  0  0  0  0  0  0  0  0
  -15.6725   14.5373  -32.9562 C   0  0  0  0  0  0  0  0  0  0  0  0
  -19.8657   17.2192  -33.9981 C   0  0  0  0  0  0  0  0  0  0  0  0
  -19.2498   15.8821  -33.0851 Br  0  0  0  0  0 15  0  0  0  0  0  0
  1  2  1  0
  2  3  1  0
  2  4  1  0
  4  5  1  1
  4  6  1  0
  6  7  1  0
  7  8  1  0
  9  8  1  6
  9 10  1  0
 10 11  1  0
 11 12  1  6
 12 13  1  0
 13 14  2  0
 13 15  1  0
 15 16  1  0
 16 17  1  0
 15 18  1  0
 18 19  2  0
 19 20  1  0
 20 21  2  0
 21 22  1  0
 22 23  2  0
 11 24  1  0
  9  4  1  0
 23 18  1  0
 24  6  1  0
M  CHG  2   4   1  25  -1
M  END
$$$$
