
     RDKit          3D

 31 33  0  0  0  0  0  0  0  0999 V2000
  -22.9731   12.6893  -32.1148 N   0  0  0  0  0  0  0  0  0  0  0  0
  -22.6047   13.7900  -31.8517 C   0  0  0  0  0  0  0  0  0  0  0  0
  -22.1621   15.1022  -31.5125 C   0  0  0  0  0  0  0  0  0  0  0  0
  -21.0531   15.6338  -32.0110 C   0  0  0  0  0  0  0  0  0  0  0  0
  -21.1023   16.7689  -32.9030 C   0  0  0  0  0  0  0  0  0  0  0  0
  -22.2210   17.5914  -33.0612 C   0  0  0  0  0  0  0  0  0  0  0  0
  -21.9030   18.5811  -33.9631 C   0  0  0  0  0  0  0  0  0  0  0  0
  -20.6180   18.3666  -34.3472 C   0  0  0  0  0  0  0  0  0  0  0  0
  -20.1430   17.2638  -33.6981 N   0  0  0  0  0  0  0  0  0  0  0  0
  -18.5470   16.6415  -33.9304 S   0  0  0  0  0  6  0  0  0  0  0  0
  -18.6434   15.1800  -34.2170 O   0  0  0  0  0  0  0  0  0  0  0  0
  -17.9182   17.3508  -35.1042 O   0  0  0  0  0  0  0  0  0  0  0  0
  -17.5623   16.9527  -32.5210 C   0  0  0  0  0  0  0  0  0  0  0  0
  -17.0905   18.2521  -32.2723 C   0  0  0  0  0  0  0  0  0  0  0  0
  -16.3380   18.5640  -31.1734 C   0  0  0  0  0  0  0  0  0  0  0  0
  -16.0344   17.5676  -30.2820 C   0  0  0  0  0  0  0  0  0  0  0  0
  -16.4700   16.2508  -30.4646 C   0  0  0  0  0  0  0  0  0  0  0  0
  -16.1410   15.2475  -29.5228 N   0  0  0  0  0  4  0  0  0  0  0  0
  -15.5976   15.5523  -28.4508 O   0  0  0  0  0  0  0  0  0  0  0  0
  -16.4107   13.9346  -29.7694 O   0  0  0  0  0  1  0  0  0  0  0  0
  -17.2211   16.0052  -31.5876 C   0  0  0  0  0  0  0  0  0  0  0  0
  -23.1614   16.0036  -30.3769 S   0  0  0  0  0  6  0  0  0  0  0  0
  -24.4721   15.3107  -30.1496 O   0  0  0  0  0  0  0  0  0  0  0  0
  -23.4069   17.3540  -30.9611 O   0  0  0  0  0  0  0  0  0  0  0  0
  -22.2509   16.1723  -28.9036 C   0  0  0  0  0  0  0  0  0  0  0  0
  -21.8682   17.4341  -28.4385 C   0  0  0  0  0  0  0  0  0  0  0  0
  -21.1453   17.5748  -27.2731 C   0  0  0  0  0  0  0  0  0  0  0  0
  -20.7706   16.5009  -26.5217 C   0  0  0  0  0  0  0  0  0  0  0  0
  -20.0546   16.6433  -25.3682 F   0  0  0  0  0  0  0  0  0  0  0  0
  -21.1472   15.2481  -26.9773 C   0  0  0  0  0  0  0  0  0  0  0  0
  -21.8748   15.0825  -28.1473 C   0  0  0  0  0  0  0  0  0  0  0  0
  1  2  3  0
  2  3  1  0
  3  4  2  3
  4  5  1  0
  5  6  2  0
  6  7  1  0
  7  8  2  0
  8  9  1  0
  9 10  1  0
 10 11  2  0
 10 12  2  0
 10 13  1  0
 13 14  2  0
 14 15  1  0
 15 16  2  0
 16 17  1  0
 17 18  1  0
 18 19  2  0
 18 20  1  0
 17 21  2  0
  3 22  1  0
 22 23  2  0
 22 24  2  0
 22 25  1  0
 25 26  2  0
 26 27  1  0
 27 28  2  0
 28 29  1  0
 28 30  1  0
 30 31  2  0
  9  5  1  0
 21 13  1  0
 31 25  1  0
M  CHG  2  18   1  20  -1
M  END
$$$$
