
     RDKit          3D

 14 13  0  0  0  0  0  0  0  0999 V2000
  -18.6429   37.2263  -22.7061 Br  0  0  0  0  0  0  0  0  0  0  0  0
  -18.6429   37.2253  -22.7062 Br  0  0  0  0  0  0  0  0  0  0  0  0
  -18.9185   33.8484  -21.9405 C   0  0  0  0  0  0  0  0  0  0  0  0
  -19.6538   34.8563  -22.4174 N   0  0  0  0  0  0  0  0  0  0  0  0
  -18.8555   35.9590  -22.6223 C   0  0  0  0  0  0  0  0  0  0  0  0
  -19.4466   37.1728  -23.1751 C   0  0  0  0  0  0  0  0  0  0  0  0
  -18.5917   38.3588  -23.3329 C   0  0  0  0  0  0  0  0  0  0  0  0
  -18.0768   38.8569  -22.0288 C   0  0  0  0  0  0  0  0  0  0  0  0
  -17.1641   40.0491  -22.1680 C   0  0  0  0  0  0  0  0  0  0  0  0
  -17.5360   40.9068  -23.2668 N   0  0  0  0  0  0  0  0  0  0  0  0
  -18.9294   40.8230  -23.6378 C   0  0  0  0  0  0  0  0  0  0  0  0
  -19.3719   39.4440  -24.0517 C   0  0  0  0  0  0  0  0  0  0  0  0
  -17.6174   35.5592  -22.2472 C   0  0  0  0  0  0  0  0  0  0  0  0
  -17.6484   34.2608  -21.8256 N   0  0  0  0  0  0  0  0  0  0  0  0
  3  4  2  0
  4  5  1  0
  5  6  1  0
  6  7  1  0
  7  8  1  0
  8  9  1  0
  9 10  1  0
 10 11  1  0
 11 12  1  0
  5 13  2  0
 13 14  1  0
 14  3  1  0
 12  7  1  0
M  END
$$$$
