
     RDKit          3D

 34 36  0  0  0  0  0  0  0  0999 V2000
  -21.5573   37.5195  -21.8687 N   0  0  0  0  0  0  0  0  0  0  0  0
  -20.8814   36.9586  -22.9609 C   0  0  0  0  0  0  0  0  0  0  0  0
  -21.2144   35.8743  -23.4575 O   0  0  0  0  0  0  0  0  0  0  0  0
  -19.6964   37.6766  -23.5815 C   0  0  1  0  0  0  0  0  0  0  0  0
  -19.9117   37.9422  -25.0101 C   0  0  0  0  0  0  0  0  0  0  0  0
  -18.6871   37.6497  -25.8285 C   0  0  0  0  0  0  0  0  0  0  0  0
  -18.9251   37.9855  -27.3071 C   0  0  0  0  0  0  0  0  0  0  0  0
  -18.9859   39.3553  -27.4920 F   0  0  0  0  0  0  0  0  0  0  0  0
  -17.8256   37.5464  -28.0107 F   0  0  0  0  0  0  0  0  0  0  0  0
  -20.0331   37.3328  -27.7909 F   0  0  0  0  0  0  0  0  0  0  0  0
  -19.0483   38.5380  -22.7078 N   0  0  0  0  0  0  0  0  0  0  0  0
  -18.2916   39.6464  -23.2108 C   0  0  0  0  0  0  0  0  0  0  0  0
  -18.1516   40.7837  -22.2758 C   0  0  0  0  0  0  0  0  0  0  0  0
  -19.2598   41.2101  -21.5870 C   0  0  0  0  0  0  0  0  0  0  0  0
  -19.2325   42.2552  -20.6838 C   0  0  0  0  0  0  0  0  0  0  0  0
  -18.0431   42.9072  -20.4554 C   0  0  0  0  0  0  0  0  0  0  0  0
  -18.0081   44.0122  -19.4991 C   0  0  0  0  0  0  0  0  0  0  0  0
  -18.9027   44.3476  -18.5669 N   0  0  0  0  0  0  0  0  0  0  0  0
  -18.4440   45.4418  -17.9196 C   0  0  0  0  0  0  0  0  0  0  0  0
  -17.2892   45.7604  -18.4550 O   0  0  0  0  0  0  0  0  0  0  0  0
  -17.0182   44.9212  -19.3928 N   0  0  0  0  0  0  0  0  0  0  0  0
  -16.9265   42.5041  -21.1263 C   0  0  0  0  0  0  0  0  0  0  0  0
  -16.9620   41.4460  -22.0385 C   0  0  0  0  0  0  0  0  0  0  0  0
  -15.8282   41.0800  -22.6834 F   0  0  0  0  0  0  0  0  0  0  0  0
  -18.1450   37.6918  -21.4829 S   0  0  0  0  0  6  0  0  0  0  0  0
  -18.7058   38.2438  -20.1702 O   0  0  0  0  0  0  0  0  0  0  0  0
  -16.7038   38.1047  -21.4722 O   0  0  0  0  0  0  0  0  0  0  0  0
  -18.3507   35.9711  -21.5344 C   0  0  0  0  0  0  0  0  0  0  0  0
  -17.5014   35.1654  -22.2757 C   0  0  0  0  0  0  0  0  0  0  0  0
  -17.6566   33.7887  -22.3145 C   0  0  0  0  0  0  0  0  0  0  0  0
  -18.6688   33.1903  -21.6092 C   0  0  0  0  0  0  0  0  0  0  0  0
  -18.8660   31.4610  -21.6563 Cl  0  0  0  0  0  0  0  0  0  0  0  0
  -19.5240   33.9618  -20.8671 C   0  0  0  0  0  0  0  0  0  0  0  0
  -19.3563   35.3447  -20.8371 C   0  0  0  0  0  0  0  0  0  0  0  0
  1  2  1  0
  2  3  2  0
  2  4  1  0
  4  5  1  6
  5  6  1  0
  6  7  1  0
  7  8  1  0
  7  9  1  0
  7 10  1  0
  4 11  1  0
 11 12  1  0
 12 13  1  0
 13 14  2  0
 14 15  1  0
 15 16  2  0
 16 17  1  0
 17 18  1  0
 18 19  2  0
 19 20  1  0
 20 21  1  0
 16 22  1  0
 22 23  2  0
 23 24  1  0
 11 25  1  0
 25 26  2  0
 25 27  2  0
 25 28  1  0
 28 29  2  0
 29 30  1  0
 30 31  2  0
 31 32  1  0
 31 33  1  0
 33 34  2  0
 23 13  1  0
 34 28  1  0
 21 17  2  0
M  END
$$$$
