
     RDKit          3D

 22 24  0  0  0  0  0  0  0  0999 V2000
  -17.3469   37.7976  -21.5403 O   0  0  0  0  0  0  0  0  0  0  0  0
  -18.5309   37.6912  -21.9942 C   0  0  0  0  0  0  0  0  0  0  0  0
  -19.2126   36.4627  -21.9563 N   0  0  0  0  0  0  0  0  0  0  0  0
  -18.4908   35.2171  -22.1042 C   0  0  0  0  0  0  0  0  0  0  0  0
  -19.4224   34.1180  -22.4994 C   0  0  0  0  0  0  0  0  0  0  0  0
  -20.6313   34.4033  -22.6848 O   0  0  0  0  0  0  0  0  0  0  0  0
  -18.9698   32.7867  -22.6641 N   0  0  0  0  0  0  0  0  0  0  0  0
  -17.6112   32.3296  -22.4513 C   0  0  0  0  0  0  0  0  0  0  0  0
  -17.8720   30.9082  -21.9361 C   0  0  0  0  0  0  0  0  0  0  0  0
  -18.9183   30.4370  -22.9240 C   0  0  0  0  0  0  0  0  0  0  0  0
  -19.7923   31.6669  -23.0720 C   0  0  0  0  0  0  0  0  0  0  0  0
  -19.1271   38.8746  -22.5398 N   0  0  0  0  0  0  0  0  0  0  0  0
  -18.6934   40.1485  -22.0724 C   0  0  0  0  0  0  0  0  0  0  0  0
  -19.5760   41.1668  -21.7753 C   0  0  0  0  0  0  0  0  0  0  0  0
  -19.1262   42.3985  -21.3215 C   0  0  0  0  0  0  0  0  0  0  0  0
  -17.7822   42.6548  -21.1492 C   0  0  0  0  0  0  0  0  0  0  0  0
  -17.3646   43.8932  -20.6951 C   0  0  0  0  0  0  0  0  0  0  0  0
  -16.0432   44.1245  -20.5330 N   0  0  0  0  0  0  0  0  0  0  0  0
  -15.1638   43.1545  -20.8136 C   0  0  0  0  0  0  0  0  0  0  0  0
  -15.5511   41.8987  -21.2719 C   0  0  0  0  0  0  0  0  0  0  0  0
  -16.8953   41.6404  -21.4448 C   0  0  0  0  0  0  0  0  0  0  0  0
  -17.3483   40.4173  -21.8958 C   0  0  0  0  0  0  0  0  0  0  0  0
  1  2  2  0
  2  3  1  0
  3  4  1  0
  4  5  1  0
  5  6  2  0
  5  7  1  0
  7  8  1  0
  8  9  1  0
  9 10  1  0
 10 11  1  0
  2 12  1  0
 12 13  1  0
 13 14  2  0
 14 15  1  0
 15 16  2  0
 16 17  1  0
 17 18  2  0
 18 19  1  0
 19 20  2  0
 20 21  1  0
 21 22  2  0
 11  7  1  0
 22 13  1  0
 21 16  1  0
M  END
$$$$
