
     RDKit          3D

 18 19  0  0  0  0  0  0  0  0999 V2000
  -10.9862    1.4310  -32.9780 O   0  0  0  0  0  0  0  0  0  0  0  0
  -11.8350    0.6307  -32.5395 C   0  0  0  0  0  0  0  0  0  0  0  0
  -11.9636   -0.0565  -31.3230 N   0  0  0  0  0  0  0  0  0  0  0  0
  -13.2228   -0.5960  -31.0365 C   0  0  0  0  0  0  0  0  0  0  0  0
  -13.4900   -1.2528  -29.9655 O   0  0  0  0  0  0  0  0  0  0  0  0
  -14.2439   -0.3745  -32.0383 C   0  0  0  0  0  0  0  0  0  0  0  0
  -15.5569   -0.4609  -31.9828 C   0  0  0  0  0  0  0  0  0  0  0  0
  -16.3678   -0.1384  -33.1283 C   0  0  0  0  0  0  0  0  0  0  0  0
  -15.8019   -0.0199  -34.3694 C   0  0  0  0  0  0  0  0  0  0  0  0
  -16.6311    0.3280  -35.4434 C   0  0  0  0  0  0  0  0  0  0  0  0
  -17.9751    0.5470  -35.2745 C   0  0  0  0  0  0  0  0  0  0  0  0
  -18.5347    0.4246  -34.0217 C   0  0  0  0  0  0  0  0  0  0  0  0
  -19.9863    0.6694  -33.8533 C   0  0  0  0  0  0  0  0  0  0  0  0
  -20.1694    1.4498  -32.7191 F   0  0  0  0  0  0  0  0  0  0  0  0
  -20.5257    1.3020  -34.9565 F   0  0  0  0  0  0  0  0  0  0  0  0
  -20.6511   -0.5106  -33.6563 F   0  0  0  0  0  0  0  0  0  0  0  0
  -17.7158    0.0832  -32.9725 C   0  0  0  0  0  0  0  0  0  0  0  0
  -13.2756    0.1121  -33.5010 S   0  0  0  0  0  0  0  0  0  0  0  0
  1  2  2  0
  2  3  1  0
  3  4  1  0
  4  5  2  0
  4  6  1  0
  6  7  2  0
  7  8  1  0
  8  9  2  0
  9 10  1  0
 10 11  2  0
 11 12  1  0
 12 13  1  0
 13 14  1  0
 13 15  1  0
 13 16  1  0
 12 17  2  0
  6 18  1  0
 18  2  1  0
 17  8  1  0
M  END
$$$$
