
     RDKit          3D

 15 16  0  0  0  0  0  0  0  0999 V2000
  -17.0381   32.3456  -22.8158 N   0  0  0  0  0  0  0  0  0  0  0  0
  -17.2027   33.7218  -22.4989 C   0  0  0  0  0  0  0  0  0  0  0  0
  -17.8817   34.5810  -23.2563 N   0  0  0  0  0  0  0  0  0  0  0  0
  -18.0374   35.8855  -22.9551 C   0  0  0  0  0  0  0  0  0  0  0  0
  -18.8031   36.7307  -23.8653 C   0  0  0  0  0  0  0  0  0  0  0  0
  -18.4617   36.7898  -25.2158 C   0  0  0  0  0  0  0  0  0  0  0  0
  -19.1413   37.5626  -26.1256 C   0  0  0  0  0  0  0  0  0  0  0  0
  -20.2117   38.3153  -25.6807 C   0  0  0  0  0  0  0  0  0  0  0  0
  -20.5948   38.2954  -24.3531 C   0  0  0  0  0  0  0  0  0  0  0  0
  -19.8797   37.5032  -23.4811 C   0  0  0  0  0  0  0  0  0  0  0  0
  -17.4530   36.3356  -21.7935 C   0  0  0  0  0  0  0  0  0  0  0  0
  -17.6263   38.1525  -21.3078 Br  0  0  0  0  0  0  0  0  0  0  0  0
  -16.7348   35.4496  -20.9826 C   0  0  0  0  0  0  0  0  0  0  0  0
  -16.2101   35.8605  -19.9365 O   0  0  0  0  0  0  0  0  0  0  0  0
  -16.6332   34.1658  -21.3644 N   0  0  0  0  0  0  0  0  0  0  0  0
  1  2  1  0
  2  3  2  0
  3  4  1  0
  4  5  1  0
  5  6  2  0
  6  7  1  0
  7  8  2  0
  8  9  1  0
  9 10  2  0
  4 11  2  0
 11 12  1  0
 11 13  1  0
 13 14  2  0
 13 15  1  0
 15  2  1  0
 10  5  1  0
M  END
$$$$
