
     RDKit          3D

 24 27  0  0  0  0  0  0  0  0999 V2000
  -20.5219   44.0692  -21.1155 O   0  0  0  0  0  0  0  0  0  0  0  0
  -19.4775   44.5023  -20.5723 C   0  0  0  0  0  0  0  0  0  0  0  0
  -19.6015   45.6129  -19.6367 C   0  0  0  0  0  0  0  0  0  0  0  0
  -18.5568   46.3755  -19.1020 C   0  0  0  0  0  0  0  0  0  0  0  0
  -19.1522   47.3027  -18.2744 C   0  0  0  0  0  0  0  0  0  0  0  0
  -20.5131   47.0711  -18.3368 C   0  0  0  0  0  0  0  0  0  0  0  0
  -20.7224   46.0741  -19.1467 O   0  0  0  0  0  0  0  0  0  0  0  0
  -18.1875   43.9222  -20.8621 N   0  0  0  0  0  0  0  0  0  0  0  0
  -16.9941   44.3467  -20.2946 N   0  0  0  0  0  0  0  0  0  0  0  0
  -15.9734   43.8554  -20.8787 C   0  0  0  0  0  0  0  0  0  0  0  0
  -14.5793   44.1069  -20.5228 C   0  0  0  0  0  0  0  0  0  0  0  0
  -14.2365   44.7255  -19.3390 C   0  0  0  0  0  0  0  0  0  0  0  0
  -12.9316   44.9681  -18.9852 C   0  0  0  0  0  0  0  0  0  0  0  0
  -11.9173   44.5882  -19.8274 C   0  0  0  0  0  0  0  0  0  0  0  0
  -10.2601   44.9173  -19.3371 Cl  0  0  0  0  0  0  0  0  0  0  0  0
  -12.2138   43.9699  -21.0137 C   0  0  0  0  0  0  0  0  0  0  0  0
  -13.5289   43.7407  -21.3405 C   0  0  0  0  0  0  0  0  0  0  0  0
  -16.4021   42.9815  -21.9866 C   0  0  0  0  0  0  0  0  0  0  0  0
  -17.8880   42.8386  -21.7534 C   0  0  0  0  0  0  0  0  0  0  0  0
  -18.1988   41.5155  -21.1496 C   0  0  0  0  0  0  0  0  0  0  0  0
  -18.5808   41.3438  -19.8420 C   0  0  0  0  0  0  0  0  0  0  0  0
  -18.7843   39.9969  -19.6248 C   0  0  0  0  0  0  0  0  0  0  0  0
  -18.5077   39.3968  -20.8486 C   0  0  0  0  0  0  0  0  0  0  0  0
  -18.1752   40.3232  -21.6927 O   0  0  0  0  0  0  0  0  0  0  0  0
  1  2  2  0
  2  3  1  0
  3  4  2  0
  4  5  1  0
  5  6  2  0
  6  7  1  0
  2  8  1  0
  8  9  1  0
  9 10  2  0
 10 11  1  0
 11 12  2  0
 12 13  1  0
 13 14  2  0
 14 15  1  0
 14 16  1  0
 16 17  2  0
 10 18  1  0
 18 19  1  0
 19 20  1  0
 20 21  2  0
 21 22  1  0
 22 23  2  0
 23 24  1  0
  7  3  1  0
 19  8  1  0
 24 20  1  0
 17 11  1  0
M  END
$$$$
