
     RDKit          3D

 31 34  0  0  0  0  0  0  0  0999 V2000
  -13.6274   43.9566  -18.4499 C   0  0  0  0  0  0  0  0  0  0  0  0
  -13.8694   42.4679  -18.6915 C   0  0  0  0  0  0  0  0  0  0  0  0
  -14.6169   42.2623  -19.8533 O   0  0  0  0  0  0  0  0  0  0  0  0
  -15.9309   42.6388  -19.9318 C   0  0  0  0  0  0  0  0  0  0  0  0
  -16.5121   43.1977  -18.9729 O   0  0  0  0  0  0  0  0  0  0  0  0
  -16.6966   42.3700  -21.2052 C   0  0  0  0  0  0  0  0  0  0  0  0
  -16.0807   41.1353  -21.8711 C   0  0  0  0  0  0  0  0  0  0  0  0
  -16.6538   39.9624  -21.2183 N   0  0  0  0  0  0  0  0  0  0  0  0
  -17.7642   39.2966  -21.8123 C   0  0  0  0  0  0  0  0  0  0  0  0
  -18.6073   40.0840  -22.5828 C   0  0  0  0  0  0  0  0  0  0  0  0
  -19.7253   39.4947  -23.1804 C   0  0  0  0  0  0  0  0  0  0  0  0
  -20.5946   40.2599  -23.9810 N   0  0  0  0  0  0  0  0  0  0  0  0
  -20.1515   41.6022  -24.2677 C   0  0  0  0  0  0  0  0  0  0  0  0
  -21.1926   42.3969  -25.0047 C   0  0  0  0  0  0  0  0  0  0  0  0
  -21.5965   41.8338  -26.2880 C   0  0  0  0  0  0  0  0  0  0  0  0
  -21.7475   42.8800  -27.2104 C   0  0  0  0  0  0  0  0  0  0  0  0
  -22.1317   42.5696  -28.5010 C   0  0  0  0  0  0  0  0  0  0  0  0
  -22.3716   41.2651  -28.9107 C   0  0  0  0  0  0  0  0  0  0  0  0
  -22.2106   40.2726  -27.9698 C   0  0  0  0  0  0  0  0  0  0  0  0
  -21.8302   40.5477  -26.6810 C   0  0  0  0  0  0  0  0  0  0  0  0
  -21.7351   39.2998  -25.9003 C   0  0  0  0  0  0  0  0  0  0  0  0
  -21.8102   39.6376  -24.4167 C   0  0  0  0  0  0  0  0  0  0  0  0
  -19.9165   38.1740  -22.9650 N   0  0  0  0  0  0  0  0  0  0  0  0
  -19.0982   37.4093  -22.2168 C   0  0  0  0  0  0  0  0  0  0  0  0
  -19.3038   35.9914  -21.9870 C   0  0  0  0  0  0  0  0  0  0  0  0
  -20.3397   35.3215  -22.5936 C   0  0  0  0  0  0  0  0  0  0  0  0
  -20.5141   33.9760  -22.3824 C   0  0  0  0  0  0  0  0  0  0  0  0
  -19.6454   33.3079  -21.5612 C   0  0  0  0  0  0  0  0  0  0  0  0
  -18.6113   33.9893  -20.9588 C   0  0  0  0  0  0  0  0  0  0  0  0
  -18.4615   35.3192  -21.1850 N   0  0  0  0  0  0  0  0  0  0  0  0
  -18.0301   37.9965  -21.6529 N   0  0  0  0  0  0  0  0  0  0  0  0
  1  2  1  0
  2  3  1  0
  3  4  1  0
  4  5  2  0
  4  6  1  0
  6  7  1  0
  7  8  1  0
  8  9  1  0
  9 10  2  0
 10 11  1  0
 11 12  1  0
 12 13  1  0
 13 14  1  0
 14 15  1  0
 15 16  2  0
 16 17  1  0
 17 18  2  0
 18 19  1  0
 19 20  2  0
 20 21  1  0
 21 22  1  0
 11 23  2  0
 23 24  1  0
 24 25  1  0
 25 26  2  0
 26 27  1  0
 27 28  2  0
 28 29  1  0
 29 30  2  0
 24 31  2  0
 31  9  1  0
 22 12  1  0
 30 25  1  0
 20 15  1  0
M  END
$$$$
