
     RDKit          3D

 12 13  0  0  0  0  0  0  0  0999 V2000
  -16.1315   42.7760  -20.7373 C   0  0  0  0  0  0  0  0  0  0  0  0
  -16.8380   41.6859  -20.1750 O   0  0  0  0  0  0  0  0  0  0  0  0
  -17.4836   40.7525  -20.9549 C   0  0  0  0  0  0  0  0  0  0  0  0
  -17.2757   39.4038  -20.8108 C   0  0  0  0  0  0  0  0  0  0  0  0
  -17.9264   38.4657  -21.5968 C   0  0  0  0  0  0  0  0  0  0  0  0
  -18.8182   38.9049  -22.5620 C   0  0  0  0  0  0  0  0  0  0  0  0
  -19.5848   38.2598  -23.4581 N   0  0  0  0  0  0  0  0  0  0  0  0
  -20.2607   39.1933  -24.1507 C   0  0  0  0  0  0  0  0  0  0  0  0
  -21.4269   38.8312  -25.4738 S   0  0  0  0  0  0  0  0  0  0  0  0
  -19.9216   40.4088  -23.6939 N   0  0  0  0  0  0  0  0  0  0  0  0
  -19.0275   40.2533  -22.7077 C   0  0  0  0  0  0  0  0  0  0  0  0
  -18.3626   41.1849  -21.9063 C   0  0  0  0  0  0  0  0  0  0  0  0
  1  2  1  0
  2  3  1  0
  3  4  2  0
  4  5  1  0
  5  6  2  0
  6  7  1  0
  7  8  1  0
  8  9  1  0
  8 10  2  0
 10 11  1  0
 11 12  2  0
 12  3  1  0
 11  6  1  0
M  END
$$$$
