
     RDKit          3D

 27 29  0  0  0  0  0  0  0  0999 V2000
  -22.5544   14.1439  -30.8824 C   0  0  0  0  0  0  0  0  0  0  0  0
  -22.1951   15.5840  -30.9717 C   0  0  0  0  0  0  0  0  0  0  0  0
  -20.8889   15.9695  -31.2938 C   0  0  0  0  0  0  0  0  0  0  0  0
  -20.5712   17.3121  -31.3733 C   0  0  0  0  0  0  0  0  0  0  0  0
  -19.2793   17.7354  -31.7128 N   0  0  0  0  0  0  0  0  0  0  0  0
  -18.1646   16.8887  -31.9156 C   0  0  0  0  0  0  0  0  0  0  0  0
  -17.8488   16.5175  -33.1949 C   0  0  0  0  0  0  0  0  0  0  0  0
  -16.7508   15.6539  -33.3670 C   0  0  0  0  0  0  0  0  0  0  0  0
  -15.9731   15.1589  -32.3456 C   0  0  0  0  0  0  0  0  0  0  0  0
  -14.4894   14.2192  -32.6389 S   0  0  0  0  0  6  0  0  0  0  0  0
  -13.7416   13.8310  -30.3752 F   0  0  0  0  0  0  0  0  0  0  0  0
  -12.8127   14.6715  -32.0114 F   0  0  0  0  0  0  0  0  0  0  0  0
  -14.5941   12.2106  -32.9914 F   0  0  0  0  0  0  0  0  0  0  0  0
  -15.4085   12.7389  -31.0707 F   0  0  0  0  0  0  0  0  0  0  0  0
  -13.8990   14.1130  -33.7276 F   0  0  0  0  0  0  0  0  0  0  0  0
  -16.3168   15.5427  -31.1209 C   0  0  0  0  0  0  0  0  0  0  0  0
  -17.4077   16.4073  -30.8763 C   0  0  0  0  0  0  0  0  0  0  0  0
  -21.5081   18.2647  -31.1424 N   0  0  0  0  0  0  0  0  0  0  0  0
  -21.4425   19.5809  -31.1589 N   0  0  0  0  0  0  0  0  0  0  0  0
  -22.6602   20.0950  -30.8586 C   0  0  0  0  0  0  0  0  0  0  0  0
  -23.0151   21.5538  -30.7713 C   0  0  0  0  0  0  0  0  0  0  0  0
  -21.9691   22.4092  -31.4074 C   0  0  0  0  0  0  0  0  0  0  0  0
  -23.1024   21.8841  -29.4332 F   0  0  0  0  0  0  0  0  0  0  0  0
  -24.2507   21.7822  -31.3321 F   0  0  0  0  0  0  0  0  0  0  0  0
  -23.4540   19.0278  -30.6624 N   0  0  0  0  0  0  0  0  0  0  0  0
  -22.7577   17.8866  -30.8339 C   0  0  0  0  0  0  0  0  0  0  0  0
  -23.0794   16.5683  -30.7541 N   0  0  0  0  0  0  0  0  0  0  0  0
  1  2  1  0
  2  3  1  0
  3  4  2  0
  4  5  1  0
  5  6  1  0
  6  7  2  0
  7  8  1  0
  8  9  2  0
  9 10  1  0
 10 11  1  0
 10 12  1  0
 10 13  1  0
 10 14  1  0
 10 15  1  0
  9 16  1  0
 16 17  2  0
  4 18  1  0
 18 19  1  0
 19 20  2  0
 20 21  1  0
 21 22  1  0
 21 23  1  0
 21 24  1  0
 20 25  1  0
 25 26  2  0
 26 27  1  0
 27  2  2  0
 17  6  1  0
 26 18  1  0
M  END
$$$$
