
     RDKit          3D

 16 16  0  0  0  0  0  0  0  0999 V2000
  -18.4816   36.1618  -21.9862 Cl  0  0  0  0  0  0  0  0  0  0  0  0
  -19.5210   32.4269  -21.1191 N   0  0  0  0  0  0  0  0  0  0  0  0
  -19.0875   33.6713  -21.6609 C   0  0  0  0  0  0  0  0  0  0  0  0
  -19.9682   34.5313  -22.2789 C   0  0  0  0  0  0  0  0  0  0  0  0
  -19.5346   35.7339  -22.7994 C   0  0  0  0  0  0  0  0  0  0  0  0
  -20.6659   36.8403  -23.5941 Cl  0  0  0  0  0  0  0  0  0  0  0  0
  -18.2116   36.1322  -22.7284 C   0  0  0  0  0  0  0  0  0  0  0  0
  -17.8070   37.3819  -23.2788 N   0  0  0  0  0  0  0  0  0  0  0  0
  -17.8245   38.5684  -22.4750 C   0  0  0  0  0  0  0  0  0  0  0  0
  -17.8857   38.5154  -21.1929 N   0  0  0  0  0  0  0  0  0  0  0  0
  -17.8890   39.8383  -20.6324 C   0  0  0  0  0  0  0  0  0  0  0  0
  -18.2678   40.7212  -21.7976 C   0  0  0  0  0  0  0  0  0  0  0  0
  -17.7846   39.9259  -22.9093 N   0  0  0  0  0  0  0  0  0  0  0  0
  -17.3309   35.2738  -22.1112 C   0  0  0  0  0  0  0  0  0  0  0  0
  -15.6508   35.7559  -22.0090 Cl  0  0  0  0  0  0  0  0  0  0  0  0
  -17.7651   34.0646  -21.5875 C   0  0  0  0  0  0  0  0  0  0  0  0
  2  3  1  0
  3  4  2  0
  4  5  1  0
  5  6  1  0
  5  7  2  0
  7  8  1  0
  8  9  1  0
  9 10  2  0
 10 11  1  0
 11 12  1  0
 12 13  1  0
  7 14  1  0
 14 15  1  0
 14 16  2  0
 16  3  1  0
 13  9  1  0
M  END
$$$$
