
     RDKit          3D

 22 22  0  0  0  0  0  0  0  0999 V2000
  -18.5927   15.1443  -34.1611 C   0  0  0  0  0  0  0  0  0  0  0  0
  -19.6772   14.9232  -33.1377 C   0  0  1  0  0  0  0  0  0  0  0  0
  -19.3047   15.3552  -31.8792 N   0  0  0  0  0  0  0  0  0  0  0  0
  -18.3484   14.8551  -31.0527 C   0  0  0  0  0  0  0  0  0  0  0  0
  -16.8943   14.9383  -31.2444 C   0  0  0  0  0  0  0  0  0  0  0  0
  -16.3236   16.3051  -31.2935 C   0  0  0  0  0  0  0  0  0  0  0  0
  -16.0012   16.9681  -30.1022 C   0  0  0  0  0  0  0  0  0  0  0  0
  -15.4525   18.2288  -30.0766 C   0  0  0  0  0  0  0  0  0  0  0  0
  -15.1953   18.8984  -31.2586 C   0  0  0  0  0  0  0  0  0  0  0  0
  -14.6412   20.1732  -31.2523 O   0  0  0  0  0  0  0  0  0  0  0  0
  -15.5020   18.2696  -32.4443 C   0  0  0  0  0  0  0  0  0  0  0  0
  -16.0544   16.9981  -32.4413 C   0  0  0  0  0  0  0  0  0  0  0  0
  -20.8612   15.7352  -33.6751 C   0  0  1  0  0  0  0  0  0  0  0  0
  -21.0844   15.1914  -34.9730 O   0  0  0  0  0  0  0  0  0  0  0  0
  -22.1136   15.5558  -32.9653 C   0  0  0  0  0  0  0  0  0  0  0  0
  -22.2744   15.0394  -31.7125 C   0  0  0  0  0  0  0  0  0  0  0  0
  -23.5338   14.9131  -31.1190 C   0  0  0  0  0  0  0  0  0  0  0  0
  -24.6655   15.3089  -31.7849 C   0  0  0  0  0  0  0  0  0  0  0  0
  -25.9338   15.1960  -31.2198 O   0  0  0  0  0  0  0  0  0  0  0  0
  -24.5274   15.8313  -33.0468 C   0  0  0  0  0  0  0  0  0  0  0  0
  -23.2748   15.9544  -33.6309 C   0  0  0  0  0  0  0  0  0  0  0  0
  -20.0183   15.7671  -32.2009 Cl  0  0  0  0  0  0  0  0  0  0  0  0
  2  1  1  6
  2  3  1  0
  3  4  1  0
  4  5  1  0
  5  6  1  0
  6  7  2  0
  7  8  1  0
  8  9  2  0
  9 10  1  0
  9 11  1  0
 11 12  2  0
  2 13  1  0
 13 14  1  6
 13 15  1  0
 15 16  2  0
 16 17  1  0
 17 18  2  0
 18 19  1  0
 18 20  1  0
 20 21  2  0
 12  6  1  0
 21 15  1  0
M  END
$$$$
