
     RDKit          3D

 29 32  0  0  0  0  0  0  0  0999 V2000
  -13.1945   17.5706  -38.3039 C   0  0  0  0  0  0  0  0  0  0  0  0
  -12.8622   17.4178  -39.7218 N   0  0  0  0  0  0  0  0  0  0  0  0
  -13.2093   18.3398  -40.6361 C   0  0  0  0  0  0  0  0  0  0  0  0
  -13.8371   19.3686  -40.2831 O   0  0  0  0  0  0  0  0  0  0  0  0
  -12.9008   18.2003  -41.9605 C   0  0  0  0  0  0  0  0  0  0  0  0
  -12.2014   17.0416  -42.3142 C   0  0  0  0  0  0  0  0  0  0  0  0
  -12.0105   17.1165  -43.6401 N   0  0  0  0  0  0  0  0  0  0  0  0
  -12.5726   18.2748  -44.0693 C   0  0  0  0  0  0  0  0  0  0  0  0
  -13.1131   18.9370  -43.0625 N   0  0  0  0  0  0  0  0  0  0  0  0
  -13.8001   20.1915  -43.0805 C   0  0  0  0  0  0  0  0  0  0  0  0
  -15.2946   19.9456  -42.9694 C   0  0  0  0  0  0  0  0  0  0  0  0
  -15.8534   19.1082  -43.7045 O   0  0  0  0  0  0  0  0  0  0  0  0
  -16.0377   20.6764  -42.0252 N   0  0  0  0  0  0  0  0  0  0  0  0
  -17.4074   20.9672  -42.1342 C   0  0  0  0  0  0  0  0  0  0  0  0
  -18.3516   20.3493  -42.8882 C   0  0  0  0  0  0  0  0  0  0  0  0
  -19.7010   20.7237  -42.9226 C   0  0  0  0  0  0  0  0  0  0  0  0
  -20.0984   21.7745  -42.1525 C   0  0  0  0  0  0  0  0  0  0  0  0
  -21.4774   22.2235  -42.1326 C   0  0  0  0  0  0  0  0  0  0  0  0
  -21.9807   22.7677  -40.9621 C   0  0  0  0  0  0  0  0  0  0  0  0
  -23.2903   23.2130  -40.8856 C   0  0  0  0  0  0  0  0  0  0  0  0
  -24.1199   23.1210  -41.9812 C   0  0  0  0  0  0  0  0  0  0  0  0
  -23.6289   22.5843  -43.1406 C   0  0  0  0  0  0  0  0  0  0  0  0
  -22.3082   22.1367  -43.2135 C   0  0  0  0  0  0  0  0  0  0  0  0
  -19.1509   22.3852  -41.4036 N   0  0  0  0  0  0  0  0  0  0  0  0
  -17.8909   22.0124  -41.3908 N   0  0  0  0  0  0  0  0  0  0  0  0
  -11.8498   16.1146  -41.4096 N   0  0  0  0  0  0  0  0  0  0  0  0
  -11.1229   14.9260  -41.8264 C   0  0  0  0  0  0  0  0  0  0  0  0
  -12.1935   16.3333  -40.1336 C   0  0  0  0  0  0  0  0  0  0  0  0
  -11.8459   15.4355  -39.2976 O   0  0  0  0  0  0  0  0  0  0  0  0
  1  2  1  0
  2  3  1  0
  3  4  2  0
  3  5  1  0
  5  6  2  0
  6  7  1  0
  7  8  2  0
  8  9  1  0
  9 10  1  0
 10 11  1  0
 11 12  2  0
 11 13  1  0
 13 14  1  0
 14 15  2  0
 15 16  1  0
 16 17  2  0
 17 18  1  0
 18 19  2  0
 19 20  1  0
 20 21  2  0
 21 22  1  0
 22 23  2  0
 17 24  1  0
 24 25  2  0
  6 26  1  0
 26 27  1  0
 26 28  1  0
 28 29  2  0
 28  2  1  0
  9  5  1  0
 25 14  1  0
 23 18  1  0
M  END
$$$$
