
     RDKit          3D

 25 27  0  0  0  0  0  0  0  0999 V2000
  -19.2196   18.7433  -31.6089 C   0  0  0  0  0  0  0  0  0  0  0  0
  -18.1671   18.3000  -32.5262 N   0  0  0  0  0  0  0  0  0  0  0  0
  -17.9156   16.9196  -32.7140 C   0  0  0  0  0  0  0  0  0  0  0  0
  -18.4980   16.1125  -31.9562 O   0  0  0  0  0  0  0  0  0  0  0  0
  -16.9992   16.4760  -33.7701 C   0  0  0  0  0  0  0  0  0  0  0  0
  -16.3448   15.1727  -33.4503 C   0  0  0  0  0  0  0  0  0  0  0  0
  -15.9299   15.1166  -32.0247 C   0  0  0  0  0  0  0  0  0  0  0  0
  -15.7404   13.7266  -31.7042 O   0  0  0  0  0  0  0  0  0  0  0  0
  -14.9339   13.4417  -30.6057 C   0  0  0  0  0  0  0  0  0  0  0  0
  -13.6173   13.0344  -30.7296 C   0  0  0  0  0  0  0  0  0  0  0  0
  -12.8406   12.7585  -29.6223 C   0  0  0  0  0  0  0  0  0  0  0  0
  -13.3477   12.8784  -28.3449 C   0  0  0  0  0  0  0  0  0  0  0  0
  -12.5848   12.6076  -27.2630 N   0  0  0  0  0  0  0  0  0  0  0  0
  -13.0893   12.7280  -26.0294 C   0  0  0  0  0  0  0  0  0  0  0  0
  -12.3430   12.4652  -25.0398 O   0  0  0  0  0  0  0  0  0  0  0  0
  -14.3949   13.1291  -25.8159 C   0  0  0  0  0  0  0  0  0  0  0  0
  -15.1658   13.4033  -26.9265 C   0  0  0  0  0  0  0  0  0  0  0  0
  -14.6587   13.2837  -28.2118 C   0  0  0  0  0  0  0  0  0  0  0  0
  -15.4355   13.5597  -29.3257 C   0  0  0  0  0  0  0  0  0  0  0  0
  -17.3759   19.2621  -33.2620 C   0  0  0  0  0  0  0  0  0  0  0  0
  -18.3208   20.0648  -34.1160 C   0  0  0  0  0  0  0  0  0  0  0  0
  -17.6804   21.2147  -34.8123 C   0  0  0  0  0  0  0  0  0  0  0  0
  -16.4009   21.6827  -34.2037 C   0  0  0  0  0  0  0  0  0  0  0  0
  -16.5495   21.5575  -32.6858 C   0  0  0  0  0  0  0  0  0  0  0  0
  -16.5836   20.1163  -32.3078 C   0  0  0  0  0  0  0  0  0  0  0  0
  1  2  1  0
  2  3  1  0
  3  4  2  0
  3  5  1  0
  5  6  1  0
  6  7  1  0
  7  8  1  0
  8  9  1  0
  9 10  2  0
 10 11  1  0
 11 12  2  0
 12 13  1  0
 13 14  1  0
 14 15  2  0
 14 16  1  0
 16 17  2  0
 17 18  1  0
 18 19  2  0
  2 20  1  0
 20 21  1  0
 21 22  1  0
 22 23  1  0
 23 24  1  0
 24 25  1  0
 19  9  1  0
 25 20  1  0
 18 12  1  0
M  END
$$$$
