
     RDKit          3D

 26 32  0  0  0  0  0  0  0  0999 V2000
  -17.3385   42.7553  -23.0378 C   0  0  0  0  0  0  0  0  0  0  0  0
  -18.6169   42.0957  -22.5840 C   0  0  0  0  0  0  0  0  0  0  0  0
  -19.7184   42.4464  -23.5199 C   0  0  0  0  0  0  0  0  0  0  0  0
  -18.4527   40.6067  -22.4283 C   0  0  2  0  0  0  0  0  0  0  0  0
  -19.6468   40.0981  -21.7037 O   0  0  0  0  0  0  0  0  0  0  0  0
  -18.2913   39.9826  -21.2325 C   0  0  1  0  0  0  0  0  0  0  0  0
  -17.8057   38.5764  -21.1928 C   0  0  2  0  0  0  0  0  0  0  0  0
  -16.6170   38.2998  -22.0385 O   0  0  0  0  0  0  0  0  0  0  0  0
  -17.8401   37.7797  -22.3552 C   0  0  1  0  0  0  0  0  0  0  0  0
  -18.1051   36.3029  -22.3261 C   0  0  1  0  0  0  0  0  0  0  0  0
  -17.8059   35.6423  -23.6537 C   0  0  0  0  0  0  0  0  0  0  0  0
  -17.2341   35.6267  -21.2892 C   0  0  0  0  0  0  0  0  0  0  0  0
  -17.5090   34.1641  -21.1945 C   0  0  0  0  0  0  0  0  0  0  0  0
  -18.8657   33.7722  -21.6691 C   0  0  0  0  0  0  0  0  0  0  0  0
  -19.7945   34.6204  -21.9910 C   0  0  0  0  0  0  0  0  0  0  0  0
  -21.0107   33.8961  -22.4175 C   0  0  0  0  0  0  0  0  0  0  0  0
  -20.6892   32.5435  -22.3091 O   0  0  0  0  0  0  0  0  0  0  0  0
  -19.3849   32.4390  -21.8541 C   0  0  0  0  0  0  0  0  0  0  0  0
  -18.8192   31.3175  -21.6598 O   0  0  0  0  0  0  0  0  0  0  0  0
  -19.5372   36.0986  -21.8972 C   0  0  2  0  0  0  0  0  0  0  0  0
  -20.5269   36.8477  -22.7021 C   0  0  0  0  0  0  0  0  0  0  0  0
  -20.0180   38.0478  -23.4087 C   0  0  2  0  0  0  0  0  0  0  0  0
  -19.1093   37.6250  -24.5117 O   0  0  0  0  0  0  0  0  0  0  0  0
  -18.6814   38.3794  -23.4537 C   0  0  2  0  0  0  0  0  0  0  0  0
  -18.2365   39.8107  -23.6671 C   0  0  2  0  0  0  0  0  0  0  0  0
  -16.9182   39.8529  -24.1112 O   0  0  0  0  0  0  0  0  0  0  0  0
  1  2  1  0
  2  3  1  0
  4  2  1  1
  4  5  1  0
  6  5  1  6
  6  7  1  0
  7  8  1  6
  9  8  1  6
  9 10  1  0
 10 11  1  6
 10 12  1  0
 12 13  1  0
 13 14  1  0
 14 15  2  0
 15 16  1  0
 16 17  1  0
 17 18  1  0
 18 19  2  0
 15 20  1  0
 20 21  1  6
 22 21  1  1
 22 23  1  0
 24 23  1  6
 24 25  1  0
 25 26  1  1
  6  4  1  0
  9  7  1  0
 20 10  1  0
 24 22  1  0
 25  4  1  0
 24  9  1  0
 18 14  1  0
M  END
$$$$
