
     RDKit          3D

  8  7  0  0  0  0  0  0  0  0999 V2000
  -20.8439   33.5792  -22.4589 O   0  0  0  0  0  0  0  0  0  0  0  0
  -19.6406   33.5858  -22.2148 C   0  0  0  0  0  0  0  0  0  0  0  0
  -18.9839   32.3589  -22.4601 O   0  0  0  0  0  0  0  0  0  0  0  0
  -18.8839   34.7023  -21.7200 C   0  0  0  0  0  0  0  0  0  0  0  0
  -17.6301   34.9802  -21.9494 C   0  0  0  0  0  0  0  0  0  0  0  0
  -17.0288   36.2076  -21.5869 C   0  0  0  0  0  0  0  0  0  0  0  0
  -15.7821   36.3662  -21.9220 O   0  0  0  0  0  0  0  0  0  0  0  0
  -17.5151   37.3055  -20.9280 O   0  0  0  0  0  0  0  0  0  0  0  0
  1  2  2  0
  2  3  1  0
  2  4  1  0
  4  5  2  0
  5  6  1  0
  6  7  2  0
  6  8  1  0
M  END
$$$$
