
     RDKit          3D

 27 30  0  0  0  0  0  0  0  0999 V2000
  -23.6176   48.1910  -15.0579 O   0  0  0  0  0  0  0  0  0  0  0  0
  -23.8105   47.3720  -15.9907 C   0  0  0  0  0  0  0  0  0  0  0  0
  -24.6692   46.3128  -15.7411 O   0  0  0  0  0  0  0  0  0  0  0  0
  -23.1446   47.5512  -17.2774 C   0  0  0  0  0  0  0  0  0  0  0  0
  -21.9047   48.1506  -17.3251 C   0  0  0  0  0  0  0  0  0  0  0  0
  -21.2775   48.3178  -18.5518 C   0  0  0  0  0  0  0  0  0  0  0  0
  -21.8469   47.9054  -19.7426 C   0  0  0  0  0  0  0  0  0  0  0  0
  -21.0946   48.1327  -20.9782 C   0  0  0  0  0  0  0  0  0  0  0  0
  -20.6264   46.9319  -21.6171 N   0  0  0  0  0  0  0  0  0  0  0  0
  -19.4759   46.4606  -20.8822 C   0  0  0  0  0  0  0  0  0  0  0  0
  -18.5059   45.6848  -21.7472 C   0  0  0  0  0  0  0  0  0  0  0  0
  -19.2818   44.9995  -22.8190 C   0  0  0  0  0  0  0  0  0  0  0  0
  -18.5196   43.9221  -23.5321 C   0  0  0  0  0  0  0  0  0  0  0  0
  -18.0910   42.8451  -22.6949 N   0  0  0  0  0  0  0  0  0  0  0  0
  -16.6352   42.9119  -22.6162 C   0  0  2  0  0  0  0  0  0  0  0  0
  -15.8378   41.6876  -22.4219 C   0  0  0  0  0  0  0  0  0  0  0  0
  -16.0865   42.5588  -21.2343 C   0  0  1  0  0  0  0  0  0  0  0  0
  -15.0116   43.4552  -20.7318 C   0  0  0  0  0  0  0  0  0  0  0  0
  -14.4830   43.2746  -19.4710 C   0  0  0  0  0  0  0  0  0  0  0  0
  -13.4823   44.1155  -19.0137 C   0  0  0  0  0  0  0  0  0  0  0  0
  -12.9937   45.1380  -19.7890 C   0  0  0  0  0  0  0  0  0  0  0  0
  -13.5111   45.3256  -21.0410 C   0  0  0  0  0  0  0  0  0  0  0  0
  -14.5138   44.4835  -21.4998 C   0  0  0  0  0  0  0  0  0  0  0  0
  -19.8226   46.0466  -23.7588 C   0  0  0  0  0  0  0  0  0  0  0  0
  -20.3317   47.2498  -22.9941 C   0  0  0  0  0  0  0  0  0  0  0  0
  -23.0849   47.3088  -19.6793 C   0  0  0  0  0  0  0  0  0  0  0  0
  -23.7075   47.1442  -18.4491 C   0  0  0  0  0  0  0  0  0  0  0  0
  1  2  2  0
  2  3  1  0
  2  4  1  0
  4  5  2  0
  5  6  1  0
  6  7  2  0
  7  8  1  0
  8  9  1  0
  9 10  1  0
 10 11  1  0
 11 12  1  0
 12 13  1  0
 13 14  1  0
 15 14  1  1
 15 16  1  0
 16 17  1  0
 17 18  1  6
 18 19  2  0
 19 20  1  0
 20 21  2  0
 21 22  1  0
 22 23  2  0
 12 24  1  0
 24 25  1  0
  7 26  1  0
 26 27  2  0
 27  4  1  0
 25  9  1  0
 17 15  1  0
 23 18  1  0
M  END
$$$$
