
     RDKit          3D

 30 33  0  0  0  0  0  0  0  0999 V2000
  -12.5520   17.4152  -41.1346 C   0  0  0  0  0  0  0  0  0  0  0  0
  -12.2756   17.3133  -39.6706 C   0  0  0  0  0  0  0  0  0  0  0  0
  -13.4672   17.2040  -38.9145 O   0  0  0  0  0  0  0  0  0  0  0  0
  -13.4860   17.5765  -37.5702 C   0  0  0  0  0  0  0  0  0  0  0  0
  -12.4964   17.2346  -36.8937 O   0  0  0  0  0  0  0  0  0  0  0  0
  -14.5408   18.2922  -36.9882 N   0  0  0  0  0  0  0  0  0  0  0  0
  -14.7813   18.4950  -35.6147 C   0  0  0  0  0  0  0  0  0  0  0  0
  -13.7806   18.5153  -34.6658 C   0  0  0  0  0  0  0  0  0  0  0  0
  -14.0316   18.7003  -33.3010 C   0  0  0  0  0  0  0  0  0  0  0  0
  -15.3207   18.8674  -32.8853 C   0  0  0  0  0  0  0  0  0  0  0  0
  -16.3225   18.8421  -33.8679 C   0  0  0  0  0  0  0  0  0  0  0  0
  -16.1015   18.6686  -35.1837 C   0  0  0  0  0  0  0  0  0  0  0  0
  -17.7278   18.9513  -33.6232 N   0  0  0  0  0  0  0  0  0  0  0  0
  -18.5736   18.0195  -34.2123 C   0  0  0  0  0  0  0  0  0  0  0  0
  -19.8442   18.1987  -34.0518 O   0  0  0  0  0  0  0  0  0  0  0  0
  -18.2215   16.8143  -34.9998 C   0  0  0  0  0  0  0  0  0  0  0  0
  -19.1022   16.7272  -36.1729 N   0  0  0  0  0  0  0  0  0  0  0  0
  -20.4876   16.7247  -35.8527 C   0  0  0  0  0  0  0  0  0  0  0  0
  -21.2172   17.5988  -36.8763 C   0  0  0  0  0  0  0  0  0  0  0  0
  -20.9493   17.0069  -38.2453 C   0  0  0  0  0  0  0  0  0  0  0  0
  -19.4637   17.1209  -38.5012 C   0  0  0  0  0  0  0  0  0  0  0  0
  -18.7064   17.5748  -37.2472 C   0  0  0  0  0  0  0  0  0  0  0  0
  -18.2402   19.9310  -32.7032 C   0  0  0  0  0  0  0  0  0  0  0  0
  -19.4862   20.3145  -33.0880 C   0  0  0  0  0  0  0  0  0  0  0  0
  -20.1774   21.2210  -32.3045 C   0  0  0  0  0  0  0  0  0  0  0  0
  -19.5621   21.7005  -31.1585 C   0  0  0  0  0  0  0  0  0  0  0  0
  -18.3170   21.3365  -30.7535 C   0  0  0  0  0  0  0  0  0  0  0  0
  -17.6061   20.4111  -31.5495 C   0  0  0  0  0  0  0  0  0  0  0  0
  -16.2671   20.1992  -30.9909 C   0  0  0  0  0  0  0  0  0  0  0  0
  -15.4656   19.0510  -31.4407 C   0  0  0  0  0  0  0  0  0  0  0  0
  1  2  1  0
  2  3  1  0
  3  4  1  0
  4  5  2  0
  4  6  1  0
  6  7  1  0
  7  8  2  0
  8  9  1  0
  9 10  2  0
 10 11  1  0
 11 12  2  0
 11 13  1  0
 13 14  1  0
 14 15  2  0
 14 16  1  0
 16 17  1  0
 17 18  1  0
 18 19  1  0
 19 20  1  0
 20 21  1  0
 21 22  1  0
 13 23  1  0
 23 24  2  0
 24 25  1  0
 25 26  2  0
 26 27  1  0
 27 28  2  0
 28 29  1  0
 29 30  1  0
 12  7  1  0
 22 17  1  0
 28 23  1  0
 30 10  1  0
M  END
$$$$
