
     RDKit          3D

 30 33  0  0  0  0  0  0  0  0999 V2000
  -22.1932   39.6219  -24.4724 C   0  0  0  0  0  0  0  0  0  0  0  0
  -21.0467   38.6557  -24.7209 C   0  0  1  0  0  0  0  0  0  0  0  0
  -21.0675   37.5763  -23.8446 O   0  0  0  0  0  0  0  0  0  0  0  0
  -19.9567   37.0430  -23.2259 C   0  0  0  0  0  0  0  0  0  0  0  0
  -19.5507   35.7450  -23.2612 C   0  0  0  0  0  0  0  0  0  0  0  0
  -18.4154   35.2627  -22.6139 C   0  0  0  0  0  0  0  0  0  0  0  0
  -17.6476   36.1458  -21.8896 C   0  0  0  0  0  0  0  0  0  0  0  0
  -16.5244   36.0643  -21.1554 N   0  0  0  0  0  0  0  0  0  0  0  0
  -16.2210   37.2598  -20.6685 N   0  0  0  0  0  0  0  0  0  0  0  0
  -17.1182   38.1772  -21.0529 C   0  0  0  0  0  0  0  0  0  0  0  0
  -17.1892   39.6045  -20.7622 C   0  0  0  0  0  0  0  0  0  0  0  0
  -16.1315   40.3278  -20.4427 C   0  0  0  0  0  0  0  0  0  0  0  0
  -16.2247   41.7478  -20.1104 C   0  0  0  0  0  0  0  0  0  0  0  0
  -17.2872   42.5843  -20.3836 C   0  0  0  0  0  0  0  0  0  0  0  0
  -16.9715   43.8153  -19.9109 N   0  0  0  0  0  0  0  0  0  0  0  0
  -15.7737   43.8187  -19.3525 N   0  0  0  0  0  0  0  0  0  0  0  0
  -15.0838   44.9589  -18.7297 C   0  0  0  0  0  0  0  0  0  0  0  0
  -14.0348   44.4295  -17.7842 C   0  0  0  0  0  0  0  0  0  0  0  0
  -12.9261   45.2696  -17.8648 O   0  0  0  0  0  0  0  0  0  0  0  0
  -15.3139   42.5604  -19.4714 C   0  0  0  0  0  0  0  0  0  0  0  0
  -18.0321   37.4877  -21.8294 C   0  0  0  0  0  0  0  0  0  0  0  0
  -19.1613   37.9240  -22.4835 C   0  0  0  0  0  0  0  0  0  0  0  0
  -21.1957   38.2194  -26.1491 C   0  0  0  0  0  0  0  0  0  0  0  0
  -22.0750   37.2335  -26.5409 C   0  0  0  0  0  0  0  0  0  0  0  0
  -23.0510   36.4686  -25.3082 Cl  0  0  0  0  0  0  0  0  0  0  0  0
  -22.2043   36.8404  -27.8530 C   0  0  0  0  0  0  0  0  0  0  0  0
  -21.4330   37.4579  -28.7608 N   0  0  0  0  0  0  0  0  0  0  0  0
  -20.5734   38.4112  -28.4314 C   0  0  0  0  0  0  0  0  0  0  0  0
  -20.4281   38.8219  -27.1138 C   0  0  0  0  0  0  0  0  0  0  0  0
  -19.2962   40.0768  -26.6819 Cl  0  0  0  0  0  0  0  0  0  0  0  0
  2  1  1  1
  2  3  1  0
  3  4  1  0
  4  5  2  0
  5  6  1  0
  6  7  2  0
  7  8  1  0
  8  9  1  0
  9 10  2  0
 10 11  1  0
 11 12  2  0
 12 13  1  0
 13 14  1  0
 14 15  2  0
 15 16  1  0
 16 17  1  0
 17 18  1  0
 18 19  1  0
 16 20  1  0
 10 21  1  0
 21 22  2  0
  2 23  1  0
 23 24  2  0
 24 25  1  0
 24 26  1  0
 26 27  2  0
 27 28  1  0
 28 29  2  0
 29 30  1  0
 22  4  1  0
 29 23  1  0
 21  7  1  0
 20 13  2  0
M  END
$$$$
