
     RDKit          3D

 14 16  0  0  0  0  0  0  0  0999 V2000
  -21.6079   22.0668  -42.0129 C   0  0  0  0  0  0  0  0  0  0  0  0
  -20.7578   22.5322  -41.0354 C   0  0  0  0  0  0  0  0  0  0  0  0
  -21.2999   23.1826  -39.9410 C   0  0  0  0  0  0  0  0  0  0  0  0
  -22.6440   23.3633  -39.8243 C   0  0  0  0  0  0  0  0  0  0  0  0
  -23.5130   22.9197  -40.7652 C   0  0  0  0  0  0  0  0  0  0  0  0
  -22.9538   22.2670  -41.8614 C   0  0  0  0  0  0  0  0  0  0  0  0
  -24.9081   23.0619  -40.7265 N   0  0  0  0  0  0  0  0  0  0  0  0
  -25.6254   23.6961  -39.6889 C   0  0  0  0  0  0  0  0  0  0  0  0
  -27.0225   23.7745  -39.7662 C   0  0  0  0  0  0  0  0  0  0  0  0
  -27.8012   24.3700  -38.8083 C   0  0  0  0  0  0  0  0  0  0  0  0
  -27.1788   24.9274  -37.6998 C   0  0  0  0  0  0  0  0  0  0  0  0
  -25.8059   24.8532  -37.6186 C   0  0  0  0  0  0  0  0  0  0  0  0
  -25.0526   24.2602  -38.5759 C   0  0  0  0  0  0  0  0  0  0  0  0
  -23.2583   24.2076  -38.3895 S   0  0  0  0  0  0  0  0  0  0  0  0
  1  2  2  0
  2  3  1  0
  3  4  2  0
  4  5  1  0
  5  6  2  0
  5  7  1  0
  7  8  1  0
  8  9  2  0
  9 10  1  0
 10 11  2  0
 11 12  1  0
 12 13  2  0
 13 14  1  0
  6  1  1  0
 13  8  1  0
 14  4  1  0
M  END
$$$$
