
     RDKit          3D

 18 20  0  0  0  0  0  0  0  0999 V2000
  -18.2665   39.9750  -19.3852 N   0  0  0  0  0  0  0  0  0  0  0  0
  -18.4777   39.6007  -20.7477 C   0  0  0  0  0  0  0  0  0  0  0  0
  -17.8824   38.4964  -21.2710 N   0  0  0  0  0  0  0  0  0  0  0  0
  -18.0637   38.1203  -22.5515 C   0  0  0  0  0  0  0  0  0  0  0  0
  -17.4516   36.9908  -23.0774 O   0  0  0  0  0  0  0  0  0  0  0  0
  -16.6819   36.1646  -22.2262 C   0  0  0  0  0  0  0  0  0  0  0  0
  -17.2790   34.8327  -22.0461 C   0  0  0  0  0  0  0  0  0  0  0  0
  -17.2740   33.7217  -22.8054 C   0  0  0  0  0  0  0  0  0  0  0  0
  -17.9024   32.6047  -22.4250 C   0  0  0  0  0  0  0  0  0  0  0  0
  -17.9491   30.9516  -23.4571 Br  0  0  0  0  0  0  0  0  0  0  0  0
  -18.5633   32.6578  -21.1957 C   0  0  0  0  0  0  0  0  0  0  0  0
  -18.2611   34.3308  -20.6115 S   0  0  0  0  0  0  0  0  0  0  0  0
  -18.8787   38.8934  -23.3279 C   0  0  0  0  0  0  0  0  0  0  0  0
  -19.2507   38.7856  -24.6133 N   0  0  0  0  0  0  0  0  0  0  0  0
  -20.0756   39.8225  -24.8851 C   0  0  0  0  0  0  0  0  0  0  0  0
  -20.2421   40.5926  -23.8063 N   0  0  0  0  0  0  0  0  0  0  0  0
  -19.4987   40.0235  -22.8231 C   0  0  0  0  0  0  0  0  0  0  0  0
  -19.2747   40.3385  -21.5438 N   0  0  0  0  0  0  0  0  0  0  0  0
  1  2  1  0
  2  3  2  0
  3  4  1  0
  4  5  1  0
  5  6  1  0
  6  7  1  0
  7  8  2  0
  8  9  1  0
  9 10  1  0
  9 11  2  0
 11 12  1  0
  4 13  2  0
 13 14  1  0
 14 15  2  0
 15 16  1  0
 16 17  1  0
 17 18  2  0
 18  2  1  0
 12  7  1  0
 17 13  1  0
M  END
$$$$
