
     RDKit          3D

 22 22  0  0  0  0  0  0  0  0999 V2000
  -21.7498   25.4657  -40.9407 C   0  0  0  0  0  0  0  0  0  0  0  0
  -22.0339   24.3337  -41.8005 N   0  0  0  0  0  0  0  0  0  0  0  0
  -23.4009   24.0700  -42.1754 C   0  0  0  0  0  0  0  0  0  0  0  0
  -20.9490   23.5168  -42.2479 C   0  0  0  0  0  0  0  0  0  0  0  0
  -21.1864   22.3715  -42.9749 C   0  0  0  0  0  0  0  0  0  0  0  0
  -20.1172   21.5736  -43.4114 C   0  0  0  0  0  0  0  0  0  0  0  0
  -18.8164   21.8941  -43.1378 C   0  0  0  0  0  0  0  0  0  0  0  0
  -17.7019   21.0739  -43.5857 C   0  0  0  0  0  0  0  0  0  0  0  0
  -17.6555   19.8309  -43.3761 O   0  0  0  0  0  0  0  0  0  0  0  0
  -16.6055   21.6371  -44.2850 N   0  0  0  0  0  0  0  0  0  0  0  0
  -15.2396   21.4022  -43.8467 C   0  0  0  0  0  0  0  0  0  0  0  0
  -15.0455   20.0935  -43.1618 C   0  0  0  0  0  0  0  0  0  0  0  0
  -13.6281   19.9648  -42.6775 C   0  0  0  0  0  0  0  0  0  0  0  0
  -13.3617   18.6684  -41.9990 C   0  0  0  0  0  0  0  0  0  0  0  0
  -11.9442   18.5894  -41.4387 C   0  0  0  0  0  0  0  0  0  0  0  0
  -11.6425   17.2617  -40.8056 C   0  0  0  0  0  0  0  0  0  0  0  0
  -10.1727   17.1223  -40.6598 C   0  0  0  0  0  0  0  0  0  0  0  0
   -9.4554   16.9284  -41.6656 O   0  0  0  0  0  0  0  0  0  0  0  0
   -9.5878   17.2110  -39.3672 N   0  0  0  0  0  0  0  0  0  0  0  0
   -8.2496   17.1846  -39.2098 O   0  0  0  0  0  0  0  0  0  0  0  0
  -18.6022   23.0560  -42.4017 C   0  0  0  0  0  0  0  0  0  0  0  0
  -19.6402   23.8508  -41.9654 C   0  0  0  0  0  0  0  0  0  0  0  0
  1  2  1  0
  2  3  1  0
  2  4  1  0
  4  5  2  0
  5  6  1  0
  6  7  2  0
  7  8  1  0
  8  9  2  0
  8 10  1  0
 10 11  1  0
 11 12  1  0
 12 13  1  0
 13 14  1  0
 14 15  1  0
 15 16  1  0
 16 17  1  0
 17 18  2  0
 17 19  1  0
 19 20  1  0
  7 21  1  0
 21 22  2  0
 22  4  1  0
M  END
$$$$
