
     RDKit          3D

 31 31  0  0  0  0  0  0  0  0999 V2000
  -17.6130   15.1265  -36.2008 C   0  0  0  0  0  0  0  0  0  0  0  0
  -17.5094   16.3051  -36.9844 O   0  0  0  0  0  0  0  0  0  0  0  0
  -18.2155   17.4650  -36.7208 C   0  0  0  0  0  0  0  0  0  0  0  0
  -18.9831   17.4516  -35.7258 O   0  0  0  0  0  0  0  0  0  0  0  0
  -18.0918   18.6896  -37.5632 C   0  0  2  0  0  0  0  0  0  0  0  0
  -16.6528   19.1224  -37.7536 C   0  0  0  0  0  0  0  0  0  0  0  0
  -15.9287   19.4502  -36.4946 C   0  0  0  0  0  0  0  0  0  0  0  0
  -15.8738   18.0347  -35.4067 S   0  0  0  0  0  0  0  0  0  0  0  0
  -15.0024   18.3341  -33.8726 C   0  0  0  0  0  0  0  0  0  0  0  0
  -18.9302   19.7519  -37.1110 N   0  0  0  0  0  0  0  0  0  0  0  0
  -19.9725   20.2506  -37.9419 C   0  0  0  0  0  0  0  0  0  0  0  0
  -20.0784   19.6981  -39.0573 O   0  0  0  0  0  0  0  0  0  0  0  0
  -20.8509   21.3351  -37.5079 C   0  0  0  0  0  0  0  0  0  0  0  0
  -20.9853   21.6033  -36.1361 C   0  0  0  0  0  0  0  0  0  0  0  0
  -21.7626   22.6305  -35.6783 C   0  0  0  0  0  0  0  0  0  0  0  0
  -22.4417   23.4364  -36.5835 C   0  0  0  0  0  0  0  0  0  0  0  0
  -23.2583   24.5088  -36.1344 N   0  0  0  0  0  0  0  0  0  0  0  0
  -23.4125   24.7982  -34.7380 C   0  0  0  0  0  0  0  0  0  0  0  0
  -24.3336   25.9669  -34.5159 C   0  0  1  0  0  0  0  0  0  0  0  0
  -23.8277   27.1522  -35.1539 N   0  0  0  0  0  0  0  0  0  0  0  0
  -25.6945   25.6561  -35.0590 C   0  0  0  0  0  0  0  0  0  0  0  0
  -26.3959   24.2126  -34.2463 S   0  0  0  0  0  0  0  0  0  0  0  0
  -22.3207   23.1868  -37.9193 C   0  0  0  0  0  0  0  0  0  0  0  0
  -21.5261   22.1345  -38.3946 C   0  0  0  0  0  0  0  0  0  0  0  0
  -21.4762   21.8804  -39.8292 C   0  0  0  0  0  0  0  0  0  0  0  0
  -20.8257   22.7838  -40.6409 C   0  0  0  0  0  0  0  0  0  0  0  0
  -20.7816   22.6154  -42.0255 C   0  0  0  0  0  0  0  0  0  0  0  0
  -21.3876   21.5430  -42.6097 C   0  0  0  0  0  0  0  0  0  0  0  0
  -22.0439   20.6279  -41.8187 C   0  0  0  0  0  0  0  0  0  0  0  0
  -22.0760   20.8139  -40.4453 C   0  0  0  0  0  0  0  0  0  0  0  0
  -21.0170   21.7957  -37.0801 Cl  0  0  0  0  0  0  0  0  0  0  0  0
  1  2  1  0
  2  3  1  0
  3  4  2  0
  3  5  1  0
  5  6  1  1
  6  7  1  0
  7  8  1  0
  8  9  1  0
  5 10  1  0
 10 11  1  0
 11 12  2  0
 11 13  1  0
 13 14  2  0
 14 15  1  0
 15 16  2  0
 16 17  1  0
 17 18  1  0
 18 19  1  0
 19 20  1  6
 19 21  1  0
 21 22  1  0
 16 23  1  0
 23 24  2  0
 24 25  1  0
 25 26  2  0
 26 27  1  0
 27 28  2  0
 28 29  1  0
 29 30  2  0
 24 13  1  0
 30 25  1  0
M  END
$$$$
