
     RDKit          3D

 29 32  0  0  0  0  0  0  0  0999 V2000
  -14.0464   20.0641  -32.2056 F   0  0  0  0  0  0  0  0  0  0  0  0
  -14.5849   18.8653  -31.7951 C   0  0  0  0  0  0  0  0  0  0  0  0
  -13.8423   17.7060  -31.8521 C   0  0  0  0  0  0  0  0  0  0  0  0
  -14.3957   16.5139  -31.4373 C   0  0  0  0  0  0  0  0  0  0  0  0
  -15.7068   16.4317  -30.9510 C   0  0  0  0  0  0  0  0  0  0  0  0
  -16.1931   15.1198  -30.5687 C   0  0  0  0  0  0  0  0  0  0  0  0
  -17.1201   14.4204  -31.3710 C   0  0  0  0  0  0  0  0  0  0  0  0
  -17.7541   14.7405  -32.5496 C   0  0  0  0  0  0  0  0  0  0  0  0
  -18.6399   13.8451  -33.1325 C   0  0  0  0  0  0  0  0  0  0  0  0
  -18.8853   12.6255  -32.5236 C   0  0  0  0  0  0  0  0  0  0  0  0
  -18.2534   12.3068  -31.3487 C   0  0  0  0  0  0  0  0  0  0  0  0
  -18.4894   11.0098  -30.6647 C   0  0  0  0  0  0  0  0  0  0  0  0
  -19.2851   10.2110  -31.4467 F   0  0  0  0  0  0  0  0  0  0  0  0
  -17.2510   10.3759  -30.5554 F   0  0  0  0  0  0  0  0  0  0  0  0
  -19.0407   11.2253  -29.4391 F   0  0  0  0  0  0  0  0  0  0  0  0
  -17.3641   13.2153  -30.7715 C   0  0  0  0  0  0  0  0  0  0  0  0
  -16.6279   13.1823  -29.6677 N   0  0  0  0  0  0  0  0  0  0  0  0
  -15.9180   14.3193  -29.5312 N   0  0  0  0  0  0  0  0  0  0  0  0
  -14.9977   14.6417  -28.4778 C   0  0  0  0  0  0  0  0  0  0  0  0
  -13.8911   13.6603  -28.3640 C   0  0  0  0  0  0  0  0  0  0  0  0
  -13.5483   12.7496  -29.3312 C   0  0  0  0  0  0  0  0  0  0  0  0
  -12.4889   11.8804  -29.1029 C   0  0  0  0  0  0  0  0  0  0  0  0
  -11.7660   11.9031  -27.9288 C   0  0  0  0  0  0  0  0  0  0  0  0
  -10.7353   11.0542  -27.7128 F   0  0  0  0  0  0  0  0  0  0  0  0
  -12.1165   12.8291  -26.9481 C   0  0  0  0  0  0  0  0  0  0  0  0
  -13.1605   13.6717  -27.1964 C   0  0  0  0  0  0  0  0  0  0  0  0
  -13.5528   14.8243  -25.9086 Cl  0  0  0  0  0  0  0  0  0  0  0  0
  -16.4333   17.5912  -30.9005 C   0  0  0  0  0  0  0  0  0  0  0  0
  -15.8702   18.7917  -31.3199 C   0  0  0  0  0  0  0  0  0  0  0  0
  1  2  1  0
  2  3  2  0
  3  4  1  0
  4  5  2  0
  5  6  1  0
  6  7  2  0
  7  8  1  0
  8  9  2  0
  9 10  1  0
 10 11  2  0
 11 12  1  0
 12 13  1  0
 12 14  1  0
 12 15  1  0
 11 16  1  0
 16 17  2  0
 17 18  1  0
 18 19  1  0
 19 20  1  0
 20 21  2  0
 21 22  1  0
 22 23  2  0
 23 24  1  0
 23 25  1  0
 25 26  2  0
 26 27  1  0
  5 28  1  0
 28 29  2  0
 29  2  1  0
 18  6  1  0
 26 20  1  0
 16  7  1  0
M  END
$$$$
