
     RDKit          3D

 41 45  0  0  0  0  0  0  0  0999 V2000
  -37.3865   14.4559  -23.1892 C   0  0  0  0  0  0  0  0  0  0  0  0
  -36.8120   15.2163  -24.2496 O   0  0  0  0  0  0  0  0  0  0  0  0
  -35.4454   15.1978  -24.4263 C   0  0  0  0  0  0  0  0  0  0  0  0
  -34.8817   14.1223  -25.1076 C   0  0  0  0  0  0  0  0  0  0  0  0
  -35.7432   13.0156  -25.6470 C   0  0  0  0  0  0  0  0  0  0  0  0
  -33.5022   14.0946  -25.2912 C   0  0  0  0  0  0  0  0  0  0  0  0
  -32.7205   15.1224  -24.8024 C   0  0  0  0  0  0  0  0  0  0  0  0
  -31.3078   14.9979  -25.0587 N   0  0  0  0  0  0  0  0  0  0  0  0
  -30.7848   15.9962  -25.9220 C   0  0  0  0  0  0  0  0  0  0  0  0
  -31.5583   16.9832  -26.2302 O   0  0  0  0  0  0  0  0  0  0  0  0
  -29.4619   16.0001  -26.4968 C   0  0  0  0  0  0  0  0  0  0  0  0
  -28.6728   14.8979  -26.4829 N   0  0  0  0  0  0  0  0  0  0  0  0
  -27.5081   15.1101  -27.0625 N   0  0  0  0  0  0  0  0  0  0  0  0
  -26.4537   14.0920  -27.1399 C   0  0  0  0  0  0  0  0  0  0  0  0
  -26.2301   13.3062  -25.9509 C   0  0  0  0  0  0  0  0  0  0  0  0
  -26.9441   12.2060  -25.5463 C   0  0  0  0  0  0  0  0  0  0  0  0
  -26.6857   11.5802  -24.3380 C   0  0  0  0  0  0  0  0  0  0  0  0
  -25.7031   12.0441  -23.5053 C   0  0  0  0  0  0  0  0  0  0  0  0
  -25.4388   11.4306  -22.3028 F   0  0  0  0  0  0  0  0  0  0  0  0
  -24.9659   13.1420  -23.8761 C   0  0  0  0  0  0  0  0  0  0  0  0
  -25.2254   13.7583  -25.0741 C   0  0  0  0  0  0  0  0  0  0  0  0
  -27.4995   16.3791  -27.4848 C   0  0  0  0  0  0  0  0  0  0  0  0
  -28.7365   16.9541  -27.1288 C   0  0  0  0  0  0  0  0  0  0  0  0
  -29.0519   18.3586  -27.4287 C   0  0  0  0  0  0  0  0  0  0  0  0
  -28.0730   19.0273  -28.2428 N   0  0  0  0  0  0  0  0  0  0  0  0
  -28.0603   20.4364  -28.2629 C   0  0  0  0  0  0  0  0  0  0  0  0
  -27.0579   21.0652  -28.6756 O   0  0  0  0  0  0  0  0  0  0  0  0
  -29.1839   21.2766  -27.8159 C   0  0  0  0  0  0  0  0  0  0  0  0
  -29.3053   22.6122  -28.1739 C   0  0  0  0  0  0  0  0  0  0  0  0
  -30.4528   23.0959  -27.5845 C   0  0  0  0  0  0  0  0  0  0  0  0
  -31.0067   22.0559  -26.8823 C   0  0  0  0  0  0  0  0  0  0  0  0
  -30.2205   20.9432  -27.0317 N   0  0  0  0  0  0  0  0  0  0  0  0
  -27.1416   18.2512  -29.0155 C   0  0  0  0  0  0  0  0  0  0  0  0
  -26.4637   17.1526  -28.2029 C   0  0  1  0  0  0  0  0  0  0  0  0
  -25.4618   17.8052  -27.2960 C   0  0  0  0  0  0  0  0  0  0  0  0
  -25.7796   16.3048  -29.2343 C   0  0  0  0  0  0  0  0  0  0  0  0
  -26.0410   16.6503  -30.5881 N   0  0  0  0  0  0  0  0  0  0  0  0
  -25.0423   15.3775  -28.8495 O   0  0  0  0  0  0  0  0  0  0  0  0
  -33.2983   16.1700  -24.1362 C   0  0  0  0  0  0  0  0  0  0  0  0
  -34.6864   16.2248  -23.9354 C   0  0  0  0  0  0  0  0  0  0  0  0
  -35.3146   17.3519  -23.2208 C   0  0  0  0  0  0  0  0  0  0  0  0
  1  2  1  0
  2  3  1  0
  3  4  2  0
  4  5  1  0
  4  6  1  0
  6  7  2  0
  7  8  1  0
  8  9  1  0
  9 10  2  0
  9 11  1  0
 11 12  2  0
 12 13  1  0
 13 14  1  0
 14 15  1  0
 15 16  2  0
 16 17  1  0
 17 18  2  0
 18 19  1  0
 18 20  1  0
 20 21  2  0
 13 22  1  0
 22 23  2  0
 23 24  1  0
 24 25  1  0
 25 26  1  0
 26 27  2  0
 26 28  1  0
 28 29  2  0
 29 30  1  0
 30 31  2  0
 31 32  1  0
 25 33  1  0
 33 34  1  0
 34 35  1  1
 34 36  1  0
 36 37  1  0
 36 38  2  0
  7 39  1  0
 39 40  2  0
 40 41  1  0
 40  3  1  0
 23 11  1  0
 32 28  1  0
 21 15  1  0
 34 22  1  0
M  END
$$$$
