
     RDKit          3D

 12 13  0  0  0  0  0  0  0  0999 V2000
  -39.9068   11.2291  -40.6555 C   0  0  0  0  0  0  0  0  0  0  0  0
  -40.8099   12.1578  -40.1998 C   0  0  0  0  0  0  0  0  0  0  0  0
  -42.1244   12.0540  -40.4739 N   0  0  0  0  0  0  0  0  0  0  0  0
  -42.5973   11.0155  -41.2174 C   0  0  0  0  0  0  0  0  0  0  0  0
  -41.7402   10.0563  -41.7001 C   0  0  0  0  0  0  0  0  0  0  0  0
  -42.1511    8.8914  -42.5151 C   0  0  2  0  0  0  0  0  0  0  0  0
  -42.0685    9.1850  -43.9775 C   0  0  0  0  0  0  0  0  0  0  0  0
  -43.3553    9.5760  -44.6213 C   0  0  0  0  0  0  0  0  0  0  0  0
  -44.5436    8.7692  -44.2022 C   0  0  0  0  0  0  0  0  0  0  0  0
  -44.2888    7.8877  -43.0134 C   0  0  0  0  0  0  0  0  0  0  0  0
  -43.4175    8.4522  -42.0502 N   0  0  0  0  0  0  0  0  0  0  0  0
  -40.3879   10.1842  -41.4044 C   0  0  0  0  0  0  0  0  0  0  0  0
  1  2  2  0
  2  3  1  0
  3  4  2  0
  4  5  1  0
  6  5  1  1
  6  7  1  0
  7  8  1  0
  8  9  1  0
  9 10  1  0
 10 11  1  0
  5 12  2  0
 12  1  1  0
 11  6  1  0
M  END
$$$$
