
     RDKit          3D

 35 39  0  0  0  0  0  0  0  0999 V2000
  -17.0695   44.3705  -25.4924 C   0  0  0  0  0  0  0  0  0  0  0  0
  -18.1503   43.4998  -25.0795 C   0  0  0  0  0  0  0  0  0  0  0  0
  -19.0508   42.7607  -24.7220 C   0  0  0  0  0  0  0  0  0  0  0  0
  -20.1146   41.8553  -24.2985 C   0  0  0  0  0  0  0  0  0  0  0  0
  -19.6852   40.5064  -24.1106 N   0  0  0  0  0  0  0  0  0  0  0  0
  -19.6652   39.5050  -24.9929 C   0  0  0  0  0  0  0  0  0  0  0  0
  -20.0723   39.4321  -26.3530 N   0  0  0  0  0  0  0  0  0  0  0  0
  -20.4647   38.2877  -27.0910 C   0  0  0  0  0  0  0  0  0  0  0  0
  -21.9671   38.4030  -27.3555 C   0  0  0  0  0  0  0  0  0  0  0  0
  -22.2726   39.7372  -28.0071 C   0  0  0  0  0  0  0  0  0  0  0  0
  -21.6522   40.9134  -27.3370 C   0  0  1  0  0  0  0  0  0  0  0  0
  -22.2683   41.2947  -26.0902 N   0  0  0  0  0  0  0  0  0  0  0  0
  -20.1678   40.7011  -27.1352 C   0  0  0  0  0  0  0  0  0  0  0  0
  -19.1560   38.4281  -24.3028 N   0  0  0  0  0  0  0  0  0  0  0  0
  -18.8729   38.7507  -23.0446 C   0  0  0  0  0  0  0  0  0  0  0  0
  -19.2065   40.0763  -22.9087 C   0  0  0  0  0  0  0  0  0  0  0  0
  -19.0058   40.6405  -21.6685 C   0  0  0  0  0  0  0  0  0  0  0  0
  -19.2940   41.8480  -21.4897 O   0  0  0  0  0  0  0  0  0  0  0  0
  -18.5067   39.9284  -20.6345 N   0  0  0  0  0  0  0  0  0  0  0  0
  -18.3030   40.5256  -19.3007 C   0  0  0  0  0  0  0  0  0  0  0  0
  -16.9154   41.1126  -19.2669 C   0  0  0  0  0  0  0  0  0  0  0  0
  -16.0611   40.8883  -18.2584 N   0  0  0  0  0  0  0  0  0  0  0  0
  -14.8312   41.4035  -18.1902 C   0  0  0  0  0  0  0  0  0  0  0  0
  -13.9065   41.1525  -17.0549 C   0  0  0  0  0  0  0  0  0  0  0  0
  -14.4076   42.2142  -19.2153 C   0  0  0  0  0  0  0  0  0  0  0  0
  -13.1394   42.7574  -19.1638 C   0  0  0  0  0  0  0  0  0  0  0  0
  -12.7116   43.5765  -20.1969 C   0  0  0  0  0  0  0  0  0  0  0  0
  -13.5521   43.8255  -21.2360 C   0  0  0  0  0  0  0  0  0  0  0  0
  -14.8171   43.2880  -21.2951 C   0  0  0  0  0  0  0  0  0  0  0  0
  -15.2692   42.4704  -20.2834 C   0  0  0  0  0  0  0  0  0  0  0  0
  -16.4857   41.9083  -20.2621 N   0  0  0  0  0  0  0  0  0  0  0  0
  -18.1854   38.6367  -20.7798 C   0  0  0  0  0  0  0  0  0  0  0  0
  -17.7177   37.9910  -19.7903 O   0  0  0  0  0  0  0  0  0  0  0  0
  -18.3703   38.0625  -21.9780 N   0  0  0  0  0  0  0  0  0  0  0  0
  -18.0238   36.6786  -22.1248 C   0  0  0  0  0  0  0  0  0  0  0  0
  1  2  1  0
  2  3  3  0
  3  4  1  0
  4  5  1  0
  5  6  1  0
  6  7  1  0
  7  8  1  0
  8  9  1  0
  9 10  1  0
 10 11  1  0
 11 12  1  1
 11 13  1  0
  6 14  2  0
 14 15  1  0
 15 16  2  0
 16 17  1  0
 17 18  2  0
 17 19  1  0
 19 20  1  0
 20 21  1  0
 21 22  2  0
 22 23  1  0
 23 24  1  0
 23 25  2  0
 25 26  1  0
 26 27  2  0
 27 28  1  0
 28 29  2  0
 29 30  1  0
 30 31  2  0
 19 32  1  0
 32 33  2  0
 32 34  1  0
 34 35  1  0
 16  5  1  0
 31 21  1  0
 13  7  1  0
 34 15  1  0
 30 25  1  0
M  END
$$$$
