
     RDKit          3D

 32 34  0  0  0  0  0  0  0  0999 V2000
  -21.2647   21.9697  -39.8317 C   0  0  0  0  0  0  0  0  0  0  0  0
  -21.3979   20.4515  -39.8577 C   0  0  0  0  0  0  0  0  0  0  0  0
  -22.8394   20.1149  -39.7634 C   0  0  0  0  0  0  0  0  0  0  0  0
  -23.1536   18.6843  -39.4937 C   0  0  0  0  0  0  0  0  0  0  0  0
  -22.0429   17.8225  -39.0356 C   0  0  0  0  0  0  0  0  0  0  0  0
  -21.6791   16.7429  -40.0346 C   0  0  0  0  0  0  0  0  0  0  0  0
  -22.8607   15.8359  -40.2846 C   0  0  0  0  0  0  0  0  0  0  0  0
  -21.2596   17.2897  -41.3758 C   0  0  0  0  0  0  0  0  0  0  0  0
  -20.8553   18.4771  -38.4003 C   0  0  0  0  0  0  0  0  0  0  0  0
  -20.7276   18.1346  -37.0322 O   0  0  0  0  0  0  0  0  0  0  0  0
  -19.7143   17.3595  -36.5023 C   0  0  0  0  0  0  0  0  0  0  0  0
  -18.8584   16.9536  -37.3178 O   0  0  0  0  0  0  0  0  0  0  0  0
  -19.6525   17.0302  -35.0443 C   0  0  0  0  0  0  0  0  0  0  0  0
  -19.2037   18.1638  -34.2483 N   0  0  0  0  0  0  0  0  0  0  0  0
  -17.9798   18.5457  -33.8768 C   0  0  0  0  0  0  0  0  0  0  0  0
  -16.7488   17.8459  -34.1947 C   0  0  0  0  0  0  0  0  0  0  0  0
  -16.2359   16.9453  -33.2856 C   0  0  0  0  0  0  0  0  0  0  0  0
  -15.0729   16.2776  -33.5587 C   0  0  0  0  0  0  0  0  0  0  0  0
  -14.4024   16.4938  -34.7382 C   0  0  0  0  0  0  0  0  0  0  0  0
  -12.7698   15.5715  -35.1519 Br  0  0  0  0  0  0  0  0  0  0  0  0
  -14.8912   17.3956  -35.6798 C   0  0  0  0  0  0  0  0  0  0  0  0
  -16.0714   18.0520  -35.3677 C   0  0  0  0  0  0  0  0  0  0  0  0
  -18.0308   19.6691  -33.1429 N   0  0  0  0  0  4  0  0  0  0  0  0
  -16.8877   20.3928  -32.5621 C   0  0  0  0  0  0  0  0  0  0  0  0
  -19.3240   20.0024  -33.0482 C   0  0  0  0  0  0  0  0  0  0  0  0
  -19.9506   21.0607  -32.4040 C   0  0  0  0  0  0  0  0  0  0  0  0
  -21.3136   21.1476  -32.4712 C   0  0  0  0  0  0  0  0  0  0  0  0
  -22.0689   20.2032  -33.1663 C   0  0  0  0  0  0  0  0  0  0  0  0
  -21.4554   19.1471  -33.8107 C   0  0  0  0  0  0  0  0  0  0  0  0
  -20.0805   19.0756  -33.7320 C   0  0  0  0  0  0  0  0  0  0  0  0
  -20.6834   19.9210  -38.6415 C   0  0  0  0  0  0  0  0  0  0  0  0
  -19.8936   18.6479  -36.7000 Cl  0  0  0  0  0 15  0  0  0  0  0  0
  1  2  1  0
  2  3  1  0
  3  4  1  0
  4  5  1  0
  5  6  1  0
  6  7  1  0
  6  8  1  0
  5  9  1  0
  9 10  1  0
 10 11  1  0
 11 12  2  0
 11 13  1  0
 13 14  1  0
 14 15  1  0
 15 16  1  0
 16 17  2  0
 17 18  1  0
 18 19  2  0
 19 20  1  0
 19 21  1  0
 21 22  2  0
 15 23  2  0
 23 24  1  0
 23 25  1  0
 25 26  2  0
 26 27  1  0
 27 28  2  0
 28 29  1  0
 29 30  2  0
  9 31  1  0
 31  2  1  0
 30 14  1  0
 22 16  1  0
 30 25  1  0
M  CHG  2  23   1  32  -1
M  END
$$$$
