
     RDKit          3D

 19 21  0  0  0  0  0  0  0  0999 V2000
    6.4496   22.9003  -17.6113 C   0  0  0  0  0  0  0  0  0  0  0  0
    5.8752   23.4537  -18.8705 C   0  0  0  0  0  0  0  0  0  0  0  0
    4.3834   23.5667  -18.8012 C   0  0  0  0  0  0  0  0  0  0  0  0
    3.8249   23.9170  -17.7430 O   0  0  0  0  0  0  0  0  0  0  0  0
    3.5592   23.2830  -19.9229 N   0  0  0  0  0  0  0  0  0  0  0  0
    3.7452   22.1454  -20.7851 C   0  0  0  0  0  0  0  0  0  0  0  0
    3.5566   20.8350  -20.0907 C   0  0  0  0  0  0  0  0  0  0  0  0
    2.2044   20.7840  -19.4533 C   0  0  2  0  0  0  0  0  0  0  0  0
    2.2074   20.8774  -17.9539 C   0  0  0  0  0  0  0  0  0  0  0  0
    2.6926   19.4675  -17.5829 C   0  0  0  0  0  0  0  0  0  0  0  0
    1.8658   18.6643  -18.5207 C   0  0  0  0  0  0  0  0  0  0  0  0
    1.3879   17.3734  -18.4552 C   0  0  0  0  0  0  0  0  0  0  0  0
    0.6162   16.8272  -19.4778 C   0  0  0  0  0  0  0  0  0  0  0  0
    0.3146   17.5858  -20.5902 C   0  0  0  0  0  0  0  0  0  0  0  0
    0.8021   18.8893  -20.6472 C   0  0  0  0  0  0  0  0  0  0  0  0
    1.5659   19.4325  -19.6373 C   0  0  0  0  0  0  0  0  0  0  0  0
    0.3245   19.4464  -21.9366 C   0  0  0  0  0  0  0  0  0  0  0  0
   -0.8873   18.5876  -22.2274 C   0  0  0  0  0  0  0  0  0  0  0  0
   -0.4246   17.3153  -21.7549 O   0  0  0  0  0  0  0  0  0  0  0  0
  1  2  1  0
  2  3  1  0
  3  4  2  0
  3  5  1  0
  5  6  1  0
  6  7  1  0
  8  7  1  1
  8  9  1  0
  9 10  1  0
 10 11  1  0
 11 12  2  0
 12 13  1  0
 13 14  2  0
 14 15  1  0
 15 16  2  0
 15 17  1  0
 17 18  1  0
 18 19  1  0
 16  8  1  0
 16 11  1  0
 19 14  1  0
M  END
$$$$
