
     RDKit          3D

 34 37  0  0  0  0  0  0  0  0999 V2000
  -24.2849   13.9857  -25.2202 C   0  0  0  0  0  0  0  0  0  0  0  0
  -25.5795   13.7692  -25.9138 C   0  0  0  0  0  0  0  0  0  0  0  0
  -26.4458   14.7486  -25.9159 N   0  0  0  0  0  0  0  0  0  0  0  0
  -26.0101   16.0138  -25.5355 N   0  0  0  0  0  0  0  0  0  0  0  0
  -25.6610   17.0279  -26.4573 C   0  0  0  0  0  0  0  0  0  0  0  0
  -24.7084   17.7953  -26.1691 O   0  0  0  0  0  0  0  0  0  0  0  0
  -26.4246   17.1566  -27.7312 C   0  0  0  0  0  0  0  0  0  0  0  0
  -27.7387   17.7161  -27.3789 N   0  0  0  0  0  0  0  0  0  0  0  0
  -28.2759   18.8228  -28.0847 C   0  0  0  0  0  0  0  0  0  0  0  0
  -27.7493   19.0378  -29.2282 O   0  0  0  0  0  0  0  0  0  0  0  0
  -29.3469   19.6770  -27.5828 C   0  0  0  0  0  0  0  0  0  0  0  0
  -29.9104   20.6736  -28.3482 C   0  0  0  0  0  0  0  0  0  0  0  0
  -30.9281   21.4558  -27.8160 C   0  0  0  0  0  0  0  0  0  0  0  0
  -31.3667   21.2310  -26.5295 C   0  0  0  0  0  0  0  0  0  0  0  0
  -30.8096   20.2350  -25.7528 C   0  0  0  0  0  0  0  0  0  0  0  0
  -29.7960   19.4584  -26.2875 C   0  0  0  0  0  0  0  0  0  0  0  0
  -25.6480   18.0875  -28.5537 C   0  0  0  0  0  0  0  0  0  0  0  0
  -25.2265   19.2338  -27.9399 N   0  0  0  0  0  0  0  0  0  0  0  0
  -24.5160   20.1636  -28.5397 N   0  0  0  0  0  0  0  0  0  0  0  0
  -24.1718   19.9954  -29.8389 C   0  0  0  0  0  0  0  0  0  0  0  0
  -23.4934   20.8479  -30.4689 O   0  0  0  0  0  0  0  0  0  0  0  0
  -24.5584   18.8704  -30.5230 C   0  0  0  0  0  0  0  0  0  0  0  0
  -24.2282   18.6760  -31.8303 C   0  0  0  0  0  0  0  0  0  0  0  0
  -24.6133   17.5419  -32.5409 C   0  0  0  0  0  0  0  0  0  0  0  0
  -25.3609   16.6075  -31.8390 C   0  0  0  0  0  0  0  0  0  0  0  0
  -25.7012   16.7962  -30.5109 C   0  0  0  0  0  0  0  0  0  0  0  0
  -25.2991   17.9215  -29.8645 C   0  0  0  0  0  0  0  0  0  0  0  0
  -25.8470   12.5079  -26.5572 C   0  0  0  0  0  0  0  0  0  0  0  0
  -25.3440   11.3472  -26.0254 C   0  0  0  0  0  0  0  0  0  0  0  0
  -25.6178   10.1510  -26.6658 C   0  0  0  0  0  0  0  0  0  0  0  0
  -26.3752   10.0865  -27.8148 C   0  0  0  0  0  0  0  0  0  0  0  0
  -26.8609   11.2674  -28.3169 C   0  0  0  0  0  0  0  0  0  0  0  0
  -27.9153   11.1838  -29.9151 Br  0  0  0  0  0  0  0  0  0  0  0  0
  -26.5997   12.4672  -27.6946 C   0  0  0  0  0  0  0  0  0  0  0  0
  1  2  1  0
  2  3  2  0
  3  4  1  0
  4  5  1  0
  5  6  2  0
  5  7  1  0
  7  8  1  0
  8  9  1  0
  9 10  2  0
  9 11  1  0
 11 12  2  0
 12 13  1  0
 13 14  2  0
 14 15  1  0
 15 16  2  0
  7 17  1  0
 17 18  2  0
 18 19  1  0
 19 20  1  0
 20 21  2  0
 20 22  1  0
 22 23  2  0
 23 24  1  0
 24 25  2  0
 25 26  1  0
 26 27  2  0
  2 28  1  0
 28 29  2  0
 29 30  1  0
 30 31  2  0
 31 32  1  0
 32 33  1  0
 32 34  2  0
 16 11  1  0
 27 17  1  0
 34 28  1  0
 27 22  1  0
M  END
$$$$
