
     RDKit          3D

 32 36  0  0  0  0  0  0  0  0999 V2000
  -15.1404   20.0021  -46.2478 O   0  0  0  0  0  0  0  0  0  0  0  0
  -15.4369   19.8441  -45.0474 C   0  0  0  0  0  0  0  0  0  0  0  0
  -14.5747   19.0605  -44.1753 C   0  0  0  0  0  0  0  0  0  0  0  0
  -13.5651   19.5742  -43.3922 C   0  0  0  0  0  0  0  0  0  0  0  0
  -12.7739   18.7882  -42.5786 C   0  0  0  0  0  0  0  0  0  0  0  0
  -11.7279   19.4238  -41.7467 C   0  0  0  0  0  0  0  0  0  0  0  0
  -10.3763   19.4034  -42.3095 C   0  0  0  0  0  0  0  0  0  0  0  0
  -10.1416   20.1190  -43.4445 N   0  0  0  0  0  0  0  0  0  0  0  0
   -8.9485   20.1055  -44.0274 N   0  0  0  0  0  0  0  0  0  0  0  0
   -7.9159   19.3948  -43.5377 C   0  0  0  0  0  0  0  0  0  0  0  0
   -6.7917   19.3957  -44.1072 O   0  0  0  0  0  0  0  0  0  0  0  0
   -8.0852   18.6538  -42.3971 C   0  0  0  0  0  0  0  0  0  0  0  0
   -7.0460   17.9337  -41.8748 C   0  0  0  0  0  0  0  0  0  0  0  0
   -7.1951   17.1944  -40.7210 C   0  0  0  0  0  0  0  0  0  0  0  0
   -8.4390   17.2249  -40.1329 C   0  0  0  0  0  0  0  0  0  0  0  0
   -9.4845   17.9497  -40.6596 C   0  0  0  0  0  0  0  0  0  0  0  0
   -9.3511   18.6812  -41.7971 C   0  0  0  0  0  0  0  0  0  0  0  0
  -12.9938   17.4468  -42.5415 C   0  0  0  0  0  0  0  0  0  0  0  0
  -13.9914   16.8858  -43.3069 C   0  0  0  0  0  0  0  0  0  0  0  0
  -14.7630   17.6814  -44.1057 C   0  0  0  0  0  0  0  0  0  0  0  0
  -15.7391   17.1425  -44.8564 F   0  0  0  0  0  0  0  0  0  0  0  0
  -16.6265   20.4417  -44.5567 N   0  0  0  0  0  0  0  0  0  0  0  0
  -16.6809   20.8212  -43.1544 C   0  0  0  0  0  0  0  0  0  0  0  0
  -17.9933   20.4214  -42.5273 C   0  0  0  0  0  0  0  0  0  0  0  0
  -19.1273   20.6948  -43.4456 N   0  0  0  0  0  0  0  0  0  0  0  0
  -20.1586   21.4896  -42.9728 C   0  0  0  0  0  0  0  0  0  0  0  0
  -21.0534   21.7888  -43.9105 O   0  0  0  0  0  0  0  0  0  0  0  0
  -20.4844   22.0711  -41.6856 C   0  0  0  0  0  0  0  0  0  0  0  0
  -20.8622   23.4436  -41.3682 C   0  0  0  0  0  0  0  0  0  0  0  0
  -21.9351   22.3766  -41.4132 C   0  0  0  0  0  0  0  0  0  0  0  0
  -19.0418   20.1005  -44.7398 C   0  0  0  0  0  0  0  0  0  0  0  0
  -17.7792   20.6763  -45.3974 C   0  0  0  0  0  0  0  0  0  0  0  0
  1  2  2  0
  2  3  1  0
  3  4  2  0
  4  5  1  0
  5  6  1  0
  6  7  1  0
  7  8  2  0
  8  9  1  0
  9 10  1  0
 10 11  2  0
 10 12  1  0
 12 13  2  0
 13 14  1  0
 14 15  2  0
 15 16  1  0
 16 17  2  0
  5 18  2  0
 18 19  1  0
 19 20  2  0
 20 21  1  0
  2 22  1  0
 22 23  1  0
 23 24  1  0
 24 25  1  0
 25 26  1  0
 26 27  2  0
 26 28  1  0
 28 29  1  0
 29 30  1  0
 25 31  1  0
 31 32  1  0
 20  3  1  0
 32 22  1  0
 17  7  1  0
 30 28  1  0
 17 12  1  0
M  END
$$$$
