
     RDKit          3D

 18 20  0  0  0  0  0  0  0  0999 V2000
  -17.7904   38.4539  -18.8475 N   0  0  0  0  0  0  0  0  0  0  0  0
  -17.9763   37.8868  -20.1342 C   0  0  0  0  0  0  0  0  0  0  0  0
  -18.2818   38.7479  -21.1254 N   0  0  0  0  0  0  0  0  0  0  0  0
  -18.4815   38.3260  -22.3909 C   0  0  0  0  0  0  0  0  0  0  0  0
  -18.7942   39.2188  -23.3982 O   0  0  0  0  0  0  0  0  0  0  0  0
  -19.0833   40.5529  -23.0418 C   0  0  0  0  0  0  0  0  0  0  0  0
  -18.6957   41.4631  -24.1237 C   0  0  0  0  0  0  0  0  0  0  0  0
  -19.4259   41.5309  -25.2780 C   0  0  0  0  0  0  0  0  0  0  0  0
  -19.0762   42.3792  -26.3028 C   0  0  0  0  0  0  0  0  0  0  0  0
  -17.9543   43.1792  -26.1487 C   0  0  0  0  0  0  0  0  0  0  0  0
  -17.2195   43.1099  -24.9851 C   0  0  0  0  0  0  0  0  0  0  0  0
  -17.5863   42.2546  -23.9722 C   0  0  0  0  0  0  0  0  0  0  0  0
  -18.3538   36.9649  -22.6036 C   0  0  0  0  0  0  0  0  0  0  0  0
  -18.4869   36.2371  -23.7266 N   0  0  0  0  0  0  0  0  0  0  0  0
  -18.2651   34.9189  -23.4410 C   0  0  0  0  0  0  0  0  0  0  0  0
  -17.9937   34.8652  -22.1147 N   0  0  0  0  0  0  0  0  0  0  0  0
  -18.0413   36.0906  -21.5856 C   0  0  0  0  0  0  0  0  0  0  0  0
  -17.8535   36.5587  -20.3513 N   0  0  0  0  0  0  0  0  0  0  0  0
  1  2  1  0
  2  3  2  0
  3  4  1  0
  4  5  1  0
  5  6  1  0
  6  7  1  0
  7  8  2  0
  8  9  1  0
  9 10  2  0
 10 11  1  0
 11 12  2  0
  4 13  2  0
 13 14  1  0
 14 15  2  0
 15 16  1  0
 16 17  1  0
 17 18  2  0
 18  2  1  0
 12  7  1  0
 17 13  1  0
M  END
$$$$
