
     RDKit          3D

 39 43  0  0  0  0  0  0  0  0999 V2000
  -27.8482   13.2316  -23.2917 C   0  0  0  0  0  0  0  0  0  0  0  0
  -28.4891   14.2984  -24.1154 C   0  0  0  0  0  0  0  0  0  0  0  0
  -27.6303   15.3480  -24.4781 O   0  0  0  0  0  0  0  0  0  0  0  0
  -27.9778   16.3559  -25.3776 C   0  0  0  0  0  0  0  0  0  0  0  0
  -29.2810   16.7023  -25.6137 C   0  0  0  0  0  0  0  0  0  0  0  0
  -29.5929   17.7069  -26.5115 C   0  0  0  0  0  0  0  0  0  0  0  0
  -28.5553   18.3412  -27.1545 C   0  0  0  0  0  0  0  0  0  0  0  0
  -27.2541   18.0098  -26.9323 C   0  0  0  0  0  0  0  0  0  0  0  0
  -26.9394   17.0136  -26.0423 C   0  0  0  0  0  0  0  0  0  0  0  0
  -25.5940   16.6152  -25.7560 N   0  0  0  0  0  0  0  0  0  0  0  0
  -25.0260   15.5479  -26.3355 C   0  0  0  0  0  0  0  0  0  0  0  0
  -25.7210   14.7264  -27.3362 C   0  0  0  0  0  0  0  0  0  0  0  0
  -25.3719   13.2709  -27.2194 C   0  0  0  0  0  0  0  0  0  0  0  0
  -25.4355   15.1577  -28.6879 N   0  0  0  0  0  0  0  0  0  0  0  0
  -25.1386   14.0983  -29.5760 C   0  0  0  0  0  0  0  0  0  0  0  0
  -24.4663   14.4198  -30.8553 C   0  0  0  0  0  0  0  0  0  0  0  0
  -23.7039   15.6239  -30.8912 N   0  0  0  0  0  0  0  0  0  0  0  0
  -22.5589   15.7116  -31.7222 C   0  0  0  0  0  0  0  0  0  0  0  0
  -22.1490   14.6723  -32.3438 O   0  0  0  0  0  0  0  0  0  0  0  0
  -21.8351   16.9924  -31.8761 C   0  0  0  0  0  0  0  0  0  0  0  0
  -20.8334   16.9044  -32.8327 O   0  0  0  0  0  0  0  0  0  0  0  0
  -19.5665   16.4213  -32.7102 C   0  0  0  0  0  0  0  0  0  0  0  0
  -19.0877   15.6272  -31.7127 C   0  0  0  0  0  0  0  0  0  0  0  0
  -17.7645   15.2003  -31.7026 C   0  0  0  0  0  0  0  0  0  0  0  0
  -16.8833   15.5594  -32.6960 C   0  0  0  0  0  0  0  0  0  0  0  0
  -15.2101   15.0488  -32.7280 Cl  0  0  0  0  0  0  0  0  0  0  0  0
  -17.3528   16.3613  -33.7104 C   0  0  0  0  0  0  0  0  0  0  0  0
  -18.6589   16.7792  -33.7149 C   0  0  0  0  0  0  0  0  0  0  0  0
  -24.1241   16.7227  -30.0756 C   0  0  0  0  0  0  0  0  0  0  0  0
  -24.5800   16.2984  -28.7343 C   0  0  0  0  0  0  0  0  0  0  0  0
  -23.7447   15.1847  -26.0249 N   0  0  0  0  0  0  0  0  0  0  0  0
  -22.9922   15.8566  -25.1430 C   0  0  0  0  0  0  0  0  0  0  0  0
  -21.6941   15.4768  -24.8372 C   0  0  0  0  0  0  0  0  0  0  0  0
  -20.9294   16.1744  -23.9288 C   0  0  0  0  0  0  0  0  0  0  0  0
  -21.5090   17.2822  -23.3240 C   0  0  0  0  0  0  0  0  0  0  0  0
  -22.8039   17.6510  -23.6369 C   0  0  0  0  0  0  0  0  0  0  0  0
  -23.5656   16.9602  -24.5382 C   0  0  0  0  0  0  0  0  0  0  0  0
  -24.8630   17.3098  -24.8666 C   0  0  0  0  0  0  0  0  0  0  0  0
  -25.3822   18.3093  -24.3188 O   0  0  0  0  0  0  0  0  0  0  0  0
  1  2  1  0
  2  3  1  0
  3  4  1  0
  4  5  2  0
  5  6  1  0
  6  7  2  0
  7  8  1  0
  8  9  2  0
  9 10  1  0
 10 11  1  0
 11 12  1  0
 12 13  1  0
 12 14  1  0
 14 15  1  0
 15 16  1  0
 16 17  1  0
 17 18  1  0
 18 19  2  0
 18 20  1  0
 20 21  1  0
 21 22  1  0
 22 23  2  0
 23 24  1  0
 24 25  2  0
 25 26  1  0
 25 27  1  0
 27 28  2  0
 17 29  1  0
 29 30  1  0
 11 31  2  0
 31 32  1  0
 32 33  2  0
 33 34  1  0
 34 35  2  0
 35 36  1  0
 36 37  2  0
 37 38  1  0
 38 39  2  0
  9  4  1  0
 38 10  1  0
 30 14  1  0
 37 32  1  0
 28 22  1  0
M  END
$$$$
