
     RDKit          3D

 20 21  0  0  0  0  0  0  0  0999 V2000
  -21.0589   33.4055  -19.6590 N   0  0  0  0  0  0  0  0  0  0  0  0
  -20.5463   32.8451  -21.1942 S   0  0  0  0  0  6  0  0  0  0  0  0
  -19.8016   31.5505  -21.0596 O   0  0  0  0  0  0  0  0  0  0  0  0
  -21.7675   32.5712  -22.0285 O   0  0  0  0  0  0  0  0  0  0  0  0
  -19.5277   33.9890  -22.0164 C   0  0  0  0  0  0  0  0  0  0  0  0
  -20.1385   34.9866  -22.7527 C   0  0  0  0  0  0  0  0  0  0  0  0
  -19.4022   35.9409  -23.4403 C   0  0  0  0  0  0  0  0  0  0  0  0
  -18.0178   35.9002  -23.3929 C   0  0  0  0  0  0  0  0  0  0  0  0
  -17.1749   36.8923  -24.0932 C   0  0  0  0  0  0  0  0  0  0  0  0
  -16.6599   37.9385  -23.2735 N   0  0  0  0  0  0  0  0  0  0  0  0
  -17.4151   39.0091  -22.7266 C   0  0  0  0  0  0  0  0  0  0  0  0
  -18.6575   38.9786  -22.7647 O   0  0  0  0  0  0  0  0  0  0  0  0
  -16.6666   40.1544  -22.1139 C   0  0  0  0  0  0  0  0  0  0  0  0
  -17.2280   40.6677  -20.9126 C   0  0  0  0  0  0  0  0  0  0  0  0
  -18.3853   41.3987  -20.6004 C   0  0  0  0  0  0  0  0  0  0  0  0
  -18.6401   41.7429  -19.3488 C   0  0  0  0  0  0  0  0  0  0  0  0
  -17.7953   41.4012  -18.3372 C   0  0  0  0  0  0  0  0  0  0  0  0
  -16.4680   40.4783  -19.2407 S   0  0  0  0  0  0  0  0  0  0  0  0
  -17.4056   34.9103  -22.6620 C   0  0  0  0  0  0  0  0  0  0  0  0
  -18.1550   33.9632  -21.9800 C   0  0  0  0  0  0  0  0  0  0  0  0
  1  2  1  0
  2  3  2  0
  2  4  2  0
  2  5  1  0
  5  6  2  0
  6  7  1  0
  7  8  2  0
  8  9  1  0
  9 10  1  0
 10 11  1  0
 11 12  2  0
 11 13  1  0
 13 14  1  0
 14 15  2  0
 15 16  1  0
 16 17  2  0
 17 18  1  0
  8 19  1  0
 19 20  2  0
 20  5  1  0
 18 14  1  0
M  END
$$$$
