
     RDKit          3D

 29 29  0  0  0  0  0  0  0  0999 V2000
  -18.2243   39.9354  -22.2869 Cl  0  0  0  0  0  0  0  0  0  0  0  0
  -18.2245   39.9338  -22.2867 Cl  0  0  0  0  0  0  0  0  0  0  0  0
  -18.2237   39.9391  -22.2873 Cl  0  0  0  0  0  0  0  0  0  0  0  0
  -19.0773   42.7701  -26.4202 N   0  0  0  0  0  0  0  0  0  0  0  0
  -18.8507   41.3436  -26.4390 C   0  0  0  0  0  0  0  0  0  0  0  0
  -18.7171   40.8688  -25.0127 C   0  0  0  0  0  0  0  0  0  0  0  0
  -19.9360   41.1328  -24.1681 C   0  0  0  0  0  0  0  0  0  0  0  0
  -19.6952   40.6284  -22.7962 C   0  0  0  0  0  0  0  0  0  0  0  0
  -18.7654   41.1023  -21.9308 N   0  0  0  0  0  0  0  0  0  0  0  0
  -18.6610   40.2257  -20.7804 C   0  0  0  0  0  0  0  0  0  0  0  0
  -18.6131   38.7639  -21.1788 C   0  0  0  0  0  0  0  0  0  0  0  0
  -17.5266   38.0684  -21.5481 N   0  0  0  0  0  0  0  0  0  0  0  0
  -17.8336   36.7980  -21.8069 C   0  0  0  0  0  0  0  0  0  0  0  0
  -17.1052   35.7015  -22.2111 C   0  0  0  0  0  0  0  0  0  0  0  0
  -17.7211   34.4634  -22.4065 C   0  0  0  0  0  0  0  0  0  0  0  0
  -19.0589   34.3592  -22.1896 C   0  0  0  0  0  0  0  0  0  0  0  0
  -19.7817   35.4686  -21.7830 C   0  0  0  0  0  0  0  0  0  0  0  0
  -19.1959   36.6980  -21.5844 C   0  0  0  0  0  0  0  0  0  0  0  0
  -19.6589   37.9004  -21.2027 N   0  0  0  0  0  0  0  0  0  0  0  0
  -17.7906   42.0407  -22.0071 C   0  0  1  0  0  0  0  0  0  0  0  0
  -18.0666   43.3833  -22.6732 C   0  0  0  0  0  0  0  0  0  0  0  0
  -16.7529   44.1587  -22.7797 C   0  0  0  0  0  0  0  0  0  0  0  0
  -15.6511   43.5880  -21.9085 C   0  0  0  0  0  0  0  0  0  0  0  0
  -16.3001   43.3368  -20.5956 C   0  0  0  0  0  0  0  0  0  0  0  0
  -15.8597   43.8762  -19.4112 C   0  0  0  0  0  0  0  0  0  0  0  0
  -16.6036   43.5821  -18.2811 C   0  0  0  0  0  0  0  0  0  0  0  0
  -17.7269   42.7888  -18.3473 C   0  0  0  0  0  0  0  0  0  0  0  0
  -18.1468   42.2643  -19.5236 N   0  0  0  0  0  0  0  0  0  0  0  0
  -17.4277   42.5514  -20.5965 C   0  0  0  0  0  0  0  0  0  0  0  0
  4  5  1  0
  5  6  1  0
  6  7  1  0
  7  8  1  0
  8  9  1  0
  9 10  1  0
 10 11  1  0
 11 12  2  0
 12 13  1  0
 13 14  2  0
 14 15  1  0
 15 16  2  0
 16 17  1  0
 17 18  2  0
 18 19  1  0
 20  9  1  1
 20 21  1  0
 21 22  1  0
 22 23  1  0
 23 24  1  0
 24 25  2  0
 25 26  1  0
 26 27  2  0
 27 28  1  0
 28 29  2  0
 19 11  1  0
 29 20  1  0
 18 13  1  0
 29 24  1  0
M  END
$$$$
