
     RDKit          3D

 31 35  0  0  0  0  0  0  0  0999 V2000
  -19.0341   41.7219  -24.2855 C   0  0  0  0  0  0  0  0  0  0  0  0
  -18.6000   40.7254  -23.2741 C   0  0  0  0  0  0  0  0  0  0  0  0
  -17.9570   41.0209  -22.0694 C   0  0  0  0  0  0  0  0  0  0  0  0
  -17.6945   39.8590  -21.3650 C   0  0  0  0  0  0  0  0  0  0  0  0
  -17.1010   39.5489  -20.1564 C   0  0  0  0  0  0  0  0  0  0  0  0
  -16.5860   40.6161  -19.3294 C   0  0  0  0  0  0  0  0  0  0  0  0
  -15.8479   40.4300  -18.1409 N   0  0  0  0  0  0  0  0  0  0  0  0
  -16.7964   41.8073  -19.6700 O   0  0  0  0  0  0  0  0  0  0  0  0
  -16.9929   38.2546  -19.7312 C   0  0  0  0  0  0  0  0  0  0  0  0
  -17.4887   37.2478  -20.5310 C   0  0  0  0  0  0  0  0  0  0  0  0
  -18.0810   37.5428  -21.7345 C   0  0  0  0  0  0  0  0  0  0  0  0
  -18.2040   38.8473  -22.1905 C   0  0  0  0  0  0  0  0  0  0  0  0
  -18.7303   39.3923  -23.3071 N   0  0  0  0  0  0  0  0  0  0  0  0
  -19.3396   38.6608  -24.3736 C   0  0  0  0  0  0  0  0  0  0  0  0
  -20.3520   39.1638  -25.0964 N   0  0  0  0  0  0  0  0  0  0  0  0
  -20.9554   38.4950  -26.1182 C   0  0  0  0  0  0  0  0  0  0  0  0
  -20.5031   37.2345  -26.4265 C   0  0  0  0  0  0  0  0  0  0  0  0
  -19.4533   36.6836  -25.6964 C   0  0  0  0  0  0  0  0  0  0  0  0
  -18.9812   35.3965  -26.0310 N   0  0  0  0  0  0  0  0  0  0  0  0
  -17.5993   35.0862  -25.6261 C   0  0  0  0  0  0  0  0  0  0  0  0
  -17.6256   34.1853  -24.4254 C   0  0  0  0  0  0  0  0  0  0  0  0
  -18.4632   33.0943  -24.3563 C   0  0  0  0  0  0  0  0  0  0  0  0
  -18.4791   32.2733  -23.2481 C   0  0  0  0  0  0  0  0  0  0  0  0
  -17.6528   32.5194  -22.1680 C   0  0  0  0  0  0  0  0  0  0  0  0
  -16.8101   33.6101  -22.2281 C   0  0  0  0  0  0  0  0  0  0  0  0
  -16.8028   34.4269  -23.3452 C   0  0  0  0  0  0  0  0  0  0  0  0
  -18.9345   37.4271  -24.7148 N   0  0  0  0  0  0  0  0  0  0  0  0
  -21.1104   36.4556  -27.5019 C   0  0  0  0  0  0  0  0  0  0  0  0
  -22.3647   36.9555  -27.8038 O   0  0  0  0  0  0  0  0  0  0  0  0
  -22.3717   38.2900  -28.0873 C   0  0  0  0  0  0  0  0  0  0  0  0
  -22.0688   39.1441  -26.8738 C   0  0  0  0  0  0  0  0  0  0  0  0
  1  2  1  0
  2  3  2  0
  3  4  1  0
  4  5  2  0
  5  6  1  0
  6  7  1  0
  6  8  2  0
  5  9  1  0
  9 10  2  0
 10 11  1  0
 11 12  2  0
 12 13  1  0
 13 14  1  0
 14 15  2  0
 15 16  1  0
 16 17  2  0
 17 18  1  0
 18 19  1  0
 19 20  1  0
 20 21  1  0
 21 22  2  0
 22 23  1  0
 23 24  2  0
 24 25  1  0
 25 26  2  0
 18 27  2  0
 17 28  1  0
 28 29  1  0
 29 30  1  0
 30 31  1  0
 13  2  1  0
 27 14  1  0
 12  4  1  0
 31 16  1  0
 26 21  1  0
M  END
$$$$
