
     RDKit          3D

 17 16  0  0  0  0  0  0  0  0999 V2000
  -11.0183   44.5466  -18.7631 C   0  0  0  0  0  0  0  0  0  0  0  0
  -12.4806   44.7704  -18.8780 C   0  0  0  0  0  0  0  0  0  0  0  0
  -13.3562   43.6462  -19.2764 C   0  0  0  0  0  0  0  0  0  0  0  0
  -14.6077   43.9120  -19.9960 C   0  0  0  0  0  0  0  0  0  0  0  0
  -15.4382   42.7804  -20.4735 C   0  0  0  0  0  0  0  0  0  0  0  0
  -16.7047   43.2521  -21.1801 C   0  0  0  0  0  0  0  0  0  0  0  0
  -17.7089   42.1295  -21.3021 C   0  0  0  0  0  0  0  0  0  0  0  0
  -17.3878   41.1411  -22.3670 C   0  0  0  0  0  0  0  0  0  0  0  0
  -18.3495   40.0024  -22.4732 C   0  0  0  0  0  0  0  0  0  0  0  0
  -18.0288   39.0893  -23.6313 C   0  0  0  0  0  0  0  0  0  0  0  0
  -18.4262   37.6585  -23.4045 C   0  0  0  0  0  0  0  0  0  0  0  0
  -18.6167   37.4334  -21.9139 C   0  0  0  0  0  0  0  0  0  0  0  0
  -19.4043   36.3062  -21.6937 O   0  0  0  0  0  0  0  0  0  0  0  0
  -18.5109   34.8927  -21.7330 P   0  0  0  0  0  5  0  0  0  0  0  0
  -17.0850   35.1921  -21.2933 O   0  0  0  0  0  0  0  0  0  0  0  0
  -19.1804   33.7520  -20.7119 O   0  0  0  0  0  0  0  0  0  0  0  0
  -18.4378   34.2871  -23.2947 O   0  0  0  0  0  0  0  0  0  0  0  0
  1  2  1  0
  2  3  1  0
  3  4  1  0
  4  5  1  0
  5  6  1  0
  6  7  1  0
  7  8  1  0
  8  9  1  0
  9 10  1  0
 10 11  1  0
 11 12  1  0
 12 13  1  0
 13 14  1  0
 14 15  2  0
 14 16  1  0
 14 17  1  0
M  END
$$$$
