
     RDKit          3D

 21 20  0  0  0  0  0  0  0  0999 V2000
  -41.1862    9.9525  -24.9578 C   0  0  0  0  0  0  0  0  0  0  0  0
  -40.0231   10.7694  -25.4798 C   0  0  0  0  0  0  0  0  0  0  0  0
  -38.7705   10.4884  -24.6625 C   0  0  0  0  0  0  0  0  0  0  0  0
  -38.0267   11.7643  -24.3987 C   0  0  0  0  0  0  0  0  0  0  0  0
  -36.7595   11.6773  -23.6819 C   0  0  0  0  0  0  0  0  0  0  0  0
  -35.9298   12.8144  -23.3361 C   0  0  0  0  0  0  0  0  0  0  0  0
  -35.8700   14.0318  -24.1634 C   0  0  0  0  0  0  0  0  0  0  0  0
  -34.9380   15.0163  -23.4230 C   0  0  0  0  0  0  0  0  0  0  0  0
  -34.6408   16.2482  -24.1966 C   0  0  0  0  0  0  0  0  0  0  0  0
  -33.8699   17.2341  -23.4219 C   0  0  0  0  0  0  0  0  0  0  0  0
  -32.8365   18.0114  -24.0912 C   0  0  0  0  0  0  0  0  0  0  0  0
  -32.1461   17.4770  -25.2599 C   0  0  0  0  0  0  0  0  0  0  0  0
  -30.7510   17.9144  -25.4974 C   0  0  0  0  0  0  0  0  0  0  0  0
  -30.2680   17.0835  -26.6889 C   0  0  0  0  0  0  0  0  0  0  0  0
  -28.9790   17.0758  -26.9438 C   0  0  0  0  0  0  0  0  0  0  0  0
  -28.5381   17.5506  -28.2878 C   0  0  1  0  0  0  0  0  0  0  0  0
  -29.5603   17.4723  -29.2015 O   0  0  0  0  0  0  0  0  0  0  0  0
  -28.0928   19.0041  -28.1359 C   0  0  1  0  0  0  0  0  0  0  0  0
  -27.0384   19.0945  -27.1317 N   0  0  0  0  0  0  0  0  0  0  0  0
  -27.5350   19.4356  -29.4593 C   0  0  0  0  0  0  0  0  0  0  0  0
  -28.5508   19.5525  -30.4063 O   0  0  0  0  0  0  0  0  0  0  0  0
  1  2  1  0
  2  3  1  0
  3  4  1  0
  4  5  1  0
  5  6  1  0
  6  7  1  0
  7  8  1  0
  8  9  1  0
  9 10  1  0
 10 11  1  0
 11 12  1  0
 12 13  1  0
 13 14  1  0
 14 15  2  0
 15 16  1  0
 16 17  1  6
 16 18  1  0
 18 19  1  1
 18 20  1  0
 20 21  1  0
M  END
$$$$
