
     RDKit          3D

 13 13  0  0  0  0  0  0  0  0999 V2000
  -17.1407   30.4070  -23.5734 N   0  0  0  0  0  0  0  0  0  0  0  0
  -17.0330   31.8408  -23.5517 C   0  0  0  0  0  0  0  0  0  0  0  0
  -18.0938   32.4894  -22.6991 C   0  0  0  0  0  0  0  0  0  0  0  0
  -17.9179   33.9362  -22.5491 C   0  0  0  0  0  0  0  0  0  0  0  0
  -18.0370   34.8101  -23.5804 C   0  0  0  0  0  0  0  0  0  0  0  0
  -17.8599   36.1718  -23.3809 C   0  0  0  0  0  0  0  0  0  0  0  0
  -17.5581   36.6960  -22.1396 C   0  0  0  0  0  0  0  0  0  0  0  0
  -17.3415   38.4011  -21.9155 S   0  0  0  0  0  6  0  0  0  0  0  0
  -18.7729   39.2997  -22.2268 N   0  0  0  0  0  0  0  0  0  0  0  0
  -16.9030   38.7256  -20.5081 O   0  0  0  0  0  0  0  0  0  0  0  0
  -16.2737   38.9350  -22.8476 O   0  0  0  0  0  0  0  0  0  0  0  0
  -17.4405   35.7901  -21.0995 C   0  0  0  0  0  0  0  0  0  0  0  0
  -17.6170   34.4279  -21.2959 C   0  0  0  0  0  0  0  0  0  0  0  0
  1  2  1  0
  2  3  1  0
  3  4  1  0
  4  5  2  0
  5  6  1  0
  6  7  2  0
  7  8  1  0
  8  9  1  0
  8 10  2  0
  8 11  2  0
  7 12  1  0
 12 13  2  0
 13  4  1  0
M  END
$$$$
