
     RDKit          3D

 28 32  0  0  0  0  0  0  0  0999 V2000
  -19.2415   48.1551  -22.2553 C   0  0  0  0  0  0  0  0  0  0  0  0
  -19.5683   46.9914  -23.0657 N   0  0  0  0  0  0  0  0  0  0  0  0
  -19.3142   45.7392  -22.6774 C   0  0  0  0  0  0  0  0  0  0  0  0
  -19.7338   44.8579  -23.6479 C   0  0  0  0  0  0  0  0  0  0  0  0
  -19.6248   43.3995  -23.5842 C   0  0  0  0  0  0  0  0  0  0  0  0
  -20.0392   42.5923  -24.6235 C   0  0  0  0  0  0  0  0  0  0  0  0
  -19.9399   41.2240  -24.5712 C   0  0  0  0  0  0  0  0  0  0  0  0
  -19.4058   40.6598  -23.4334 C   0  0  0  0  0  0  0  0  0  0  0  0
  -19.1546   39.4017  -23.0247 N   0  0  0  0  0  0  0  0  0  0  0  0
  -18.6237   39.4511  -21.8176 N   0  0  0  0  0  0  0  0  0  0  0  0
  -18.5123   40.7243  -21.4050 C   0  0  0  0  0  0  0  0  0  0  0  0
  -17.9685   41.2582  -20.1110 C   0  0  0  0  0  0  0  0  0  0  0  0
  -18.9497   42.0472  -19.5020 F   0  0  0  0  0  0  0  0  0  0  0  0
  -17.6589   40.2121  -19.2962 F   0  0  0  0  0  0  0  0  0  0  0  0
  -16.8216   42.1238  -20.4531 C   0  0  0  0  0  0  0  0  0  0  0  0
  -15.7355   41.5720  -21.0781 C   0  0  0  0  0  0  0  0  0  0  0  0
  -14.6326   42.3298  -21.4224 C   0  0  0  0  0  0  0  0  0  0  0  0
  -14.6498   43.6799  -21.1168 C   0  0  0  0  0  0  0  0  0  0  0  0
  -13.5756   44.4376  -21.4476 N   0  0  0  0  0  0  0  0  0  0  0  0
  -13.5613   45.7488  -21.1648 C   0  0  0  0  0  0  0  0  0  0  0  0
  -14.6068   46.3957  -20.5374 C   0  0  0  0  0  0  0  0  0  0  0  0
  -15.7012   45.6276  -20.1996 C   0  0  0  0  0  0  0  0  0  0  0  0
  -15.7242   44.2659  -20.4895 C   0  0  0  0  0  0  0  0  0  0  0  0
  -16.7987   43.4660  -20.1677 C   0  0  0  0  0  0  0  0  0  0  0  0
  -19.0082   41.4655  -22.4325 N   0  0  0  0  0  0  0  0  0  0  0  0
  -19.1112   42.7968  -22.4979 N   0  0  0  0  0  0  0  0  0  0  0  0
  -20.2592   45.6264  -24.6543 C   0  0  0  0  0  0  0  0  0  0  0  0
  -20.1304   46.9040  -24.2439 N   0  0  0  0  0  0  0  0  0  0  0  0
  1  2  1  0
  2  3  1  0
  3  4  2  0
  4  5  1  0
  5  6  1  0
  6  7  2  0
  7  8  1  0
  8  9  2  0
  9 10  1  0
 10 11  2  0
 11 12  1  0
 12 13  1  0
 12 14  1  0
 12 15  1  0
 15 16  2  0
 16 17  1  0
 17 18  2  0
 18 19  1  0
 19 20  2  0
 20 21  1  0
 21 22  2  0
 22 23  1  0
 23 24  2  0
 11 25  1  0
 25 26  1  0
  4 27  1  0
 27 28  2  0
 28  2  1  0
 26  5  2  0
 25  8  1  0
 24 15  1  0
 23 18  1  0
M  END
$$$$
