
     RDKit          3D

 33 36  0  0  0  0  0  0  0  0999 V2000
  -13.4788   42.8297  -19.7942 C   0  0  0  0  0  0  0  0  0  0  0  0
  -13.9957   44.0659  -19.1592 C   0  0  0  0  0  0  0  0  0  0  0  0
  -13.3848   44.7738  -18.1185 C   0  0  0  0  0  0  0  0  0  0  0  0
  -14.1674   45.8134  -17.8156 N   0  0  0  0  0  0  0  0  0  0  0  0
  -15.2712   45.8498  -18.5903 C   0  0  0  0  0  0  0  0  0  0  0  0
  -16.3249   46.6893  -18.6370 N   0  0  0  0  0  0  0  0  0  0  0  0
  -17.3014   46.4577  -19.5284 C   0  0  0  0  0  0  0  0  0  0  0  0
  -17.2019   45.4079  -20.3404 N   0  0  0  0  0  0  0  0  0  0  0  0
  -16.1556   44.5263  -20.3355 C   0  0  0  0  0  0  0  0  0  0  0  0
  -16.1452   43.4596  -21.2812 N   0  0  0  0  0  0  0  0  0  0  0  0
  -16.9193   43.3785  -22.4884 C   0  0  0  0  0  0  0  0  0  0  0  0
  -17.2930   41.9021  -22.7229 C   0  0  0  0  0  0  0  0  0  0  0  0
  -17.4529   41.1340  -21.4544 C   0  0  0  0  0  0  0  0  0  0  0  0
  -18.6495   41.6899  -20.7222 C   0  0  0  0  0  0  0  0  0  0  0  0
  -19.4374   42.5838  -21.5130 N   0  0  0  0  0  0  0  0  0  0  0  0
  -17.7650   39.7305  -21.8367 C   0  0  0  0  0  0  0  0  0  0  0  0
  -18.3366   38.9860  -21.0194 O   0  0  0  0  0  0  0  0  0  0  0  0
  -17.4407   39.1809  -23.1084 N   0  0  0  0  0  0  0  0  0  0  0  0
  -18.2846   38.2197  -23.7382 C   0  0  0  0  0  0  0  0  0  0  0  0
  -18.3534   36.9537  -23.1828 C   0  0  0  0  0  0  0  0  0  0  0  0
  -19.1651   36.0182  -23.7834 C   0  0  0  0  0  0  0  0  0  0  0  0
  -19.9095   36.2834  -24.9080 C   0  0  0  0  0  0  0  0  0  0  0  0
  -19.8435   37.5583  -25.4716 C   0  0  0  0  0  0  0  0  0  0  0  0
  -20.5937   37.8214  -26.6031 O   0  0  0  0  0  0  0  0  0  0  0  0
  -21.9822   37.8282  -26.6274 C   0  0  0  0  0  0  0  0  0  0  0  0
  -22.5711   36.9504  -25.9524 O   0  0  0  0  0  0  0  0  0  0  0  0
  -22.7374   38.7659  -27.3676 N   0  0  0  0  0  0  0  0  0  0  0  0
  -22.0451   39.8193  -28.0771 C   0  0  0  0  0  0  0  0  0  0  0  0
  -24.1753   38.7093  -27.4401 C   0  0  0  0  0  0  0  0  0  0  0  0
  -19.0301   38.4902  -24.8669 C   0  0  0  0  0  0  0  0  0  0  0  0
  -16.2023   41.1591  -20.6448 C   0  0  0  0  0  0  0  0  0  0  0  0
  -15.2770   42.3322  -20.9969 C   0  0  0  0  0  0  0  0  0  0  0  0
  -15.1567   44.7424  -19.4390 C   0  0  0  0  0  0  0  0  0  0  0  0
  1  2  1  0
  2  3  2  0
  3  4  1  0
  4  5  1  0
  5  6  2  0
  6  7  1  0
  7  8  2  0
  8  9  1  0
  9 10  1  0
 10 11  1  0
 11 12  1  0
 12 13  1  0
 13 14  1  0
 14 15  1  0
 13 16  1  0
 16 17  2  0
 16 18  1  0
 18 19  1  0
 19 20  2  0
 20 21  1  0
 21 22  2  0
 22 23  1  0
 23 24  1  0
 24 25  1  0
 25 26  2  0
 25 27  1  0
 27 28  1  0
 27 29  1  0
 23 30  2  0
 13 31  1  0
 31 32  1  0
  9 33  2  0
 33  2  1  0
 33  5  1  0
 32 10  1  0
 30 19  1  0
M  END
$$$$
