
     RDKit          3D

  9  9  0  0  0  0  0  0  0  0999 V2000
  -18.1951   33.1573  -22.2817 O   0  0  0  0  0  0  0  0  0  0  0  0
  -18.9308   34.1729  -22.3627 C   0  0  0  0  0  0  0  0  0  0  0  0
  -20.2684   34.0267  -22.6160 O   0  0  0  0  0  0  0  0  0  0  0  0
  -18.3148   35.4725  -22.1806 C   0  0  0  0  0  0  0  0  0  0  0  0
  -18.9954   36.6563  -22.2983 C   0  0  0  0  0  0  0  0  0  0  0  0
  -18.3950   37.8833  -22.1220 C   0  0  0  0  0  0  0  0  0  0  0  0
  -17.0527   37.9396  -21.8136 C   0  0  0  0  0  0  0  0  0  0  0  0
  -16.3764   36.7916  -21.6956 N   0  0  0  0  0  0  0  0  0  0  0  0
  -16.9613   35.5935  -21.8675 C   0  0  0  0  0  0  0  0  0  0  0  0
  1  2  2  0
  2  3  1  0
  2  4  1  0
  4  5  2  0
  5  6  1  0
  6  7  2  0
  7  8  1  0
  8  9  2  0
  9  4  1  0
M  END
$$$$
