
     RDKit          3D

 17 18  0  0  0  0  0  0  0  0999 V2000
  -15.9757   17.0378  -36.4992 O   0  0  0  0  0  0  0  0  0  0  0  0
  -16.4863   17.5478  -37.5404 C   0  0  0  0  0  0  0  0  0  0  0  0
  -15.6014   18.0207  -38.5246 N   0  0  0  0  0  0  0  0  0  0  0  0
  -14.1975   17.7853  -38.5268 C   0  0  0  0  0  0  0  0  0  0  0  0
  -13.5272   17.2405  -37.4617 C   0  0  0  0  0  0  0  0  0  0  0  0
  -12.1699   17.0444  -37.5412 C   0  0  0  0  0  0  0  0  0  0  0  0
  -11.4880   17.3982  -38.6962 C   0  0  0  0  0  0  0  0  0  0  0  0
   -9.3998   17.1152  -38.8642 I   0  0  0  0  0  0  0  0  0  0  0  0
  -12.1319   17.9488  -39.7864 C   0  0  0  0  0  0  0  0  0  0  0  0
  -13.4984   18.1340  -39.6764 C   0  0  0  0  0  0  0  0  0  0  0  0
  -17.8927   17.5967  -37.6216 N   0  0  0  0  0  0  0  0  0  0  0  0
  -18.7905   17.4072  -36.5102 C   0  0  0  0  0  0  0  0  0  0  0  0
  -20.2213   17.6793  -36.8607 C   0  0  0  0  0  0  0  0  0  0  0  0
  -21.0613   17.1552  -35.7007 C   0  0  0  0  0  0  0  0  0  0  0  0
  -20.7287   17.8743  -34.4181 C   0  0  0  0  0  0  0  0  0  0  0  0
  -19.5452   18.7927  -34.5530 C   0  0  0  0  0  0  0  0  0  0  0  0
  -18.4066   18.2142  -35.3184 C   0  0  0  0  0  0  0  0  0  0  0  0
  1  2  2  0
  2  3  1  0
  3  4  1  0
  4  5  2  0
  5  6  1  0
  6  7  2  0
  7  8  1  0
  7  9  1  0
  9 10  2  0
  2 11  1  0
 11 12  1  0
 12 13  1  0
 13 14  1  0
 14 15  1  0
 15 16  1  0
 16 17  1  0
 10  4  1  0
 17 12  1  0
M  END
$$$$
