
     RDKit          3D

 25 28  0  0  0  0  0  0  0  0999 V2000
  -22.7033   41.2131  -28.4152 C   0  0  0  0  0  0  0  0  0  0  0  0
  -22.2786   40.4542  -27.1662 C   0  0  0  0  0  0  0  0  0  0  0  0
  -21.6242   39.1421  -27.5212 C   0  0  0  0  0  0  0  0  0  0  0  0
  -21.1168   38.2587  -26.0533 S   0  0  0  0  0  0  0  0  0  0  0  0
  -20.0720   39.2093  -24.9771 C   0  0  0  0  0  0  0  0  0  0  0  0
  -19.8462   40.5602  -25.0423 N   0  0  0  0  0  0  0  0  0  0  0  0
  -19.0291   40.9035  -24.0684 N   0  0  0  0  0  0  0  0  0  0  0  0
  -18.7085   39.8093  -23.3582 C   0  0  0  0  0  0  0  0  0  0  0  0
  -17.9539   39.5426  -22.2884 N   0  0  0  0  0  0  0  0  0  0  0  0
  -17.2601   40.6455  -21.6786 C   0  0  0  0  0  0  0  0  0  0  0  0
  -16.1624   41.1740  -22.3065 C   0  0  0  0  0  0  0  0  0  0  0  0
  -15.4554   42.2316  -21.7742 C   0  0  0  0  0  0  0  0  0  0  0  0
  -15.8699   42.7693  -20.5740 C   0  0  0  0  0  0  0  0  0  0  0  0
  -16.9616   42.2430  -19.9499 C   0  0  0  0  0  0  0  0  0  0  0  0
  -17.6687   41.1796  -20.4899 C   0  0  0  0  0  0  0  0  0  0  0  0
  -17.8041   38.3332  -21.7521 C   0  0  0  0  0  0  0  0  0  0  0  0
  -17.0618   38.1817  -20.7324 O   0  0  0  0  0  0  0  0  0  0  0  0
  -18.4737   37.2239  -22.3226 C   0  0  0  0  0  0  0  0  0  0  0  0
  -18.4619   35.9330  -21.9264 C   0  0  0  0  0  0  0  0  0  0  0  0
  -17.6584   35.4180  -20.7161 C   0  0  0  0  0  0  0  0  0  0  0  0
  -19.1910   35.0093  -22.6124 C   0  0  0  0  0  0  0  0  0  0  0  0
  -19.3954   33.5868  -22.4638 C   0  0  0  0  0  0  0  0  0  0  0  0
  -19.9822   36.0249  -23.9512 S   0  0  0  0  0  0  0  0  0  0  0  0
  -19.2278   37.5488  -23.4105 C   0  0  0  0  0  0  0  0  0  0  0  0
  -19.3565   38.7881  -23.9300 N   0  0  0  0  0  0  0  0  0  0  0  0
  1  2  1  0
  2  3  1  0
  3  4  1  0
  4  5  1  0
  5  6  2  0
  6  7  1  0
  7  8  2  0
  8  9  1  0
  9 10  1  0
 10 11  2  0
 11 12  1  0
 12 13  2  0
 13 14  1  0
 14 15  2  0
  9 16  1  0
 16 17  2  0
 16 18  1  0
 18 19  1  0
 19 20  1  0
 19 21  2  0
 21 22  1  0
 21 23  1  0
 23 24  1  0
 24 25  1  0
 25  5  1  0
 25  8  1  0
 15 10  1  0
 24 18  2  0
M  END
$$$$
