
     RDKit          3D

 38 42  0  0  0  0  0  0  0  0999 V2000
  -21.2349   20.2405  -45.0926 N   0  0  0  0  0  0  0  0  0  0  0  0
  -20.8933   20.2927  -43.9712 C   0  0  0  0  0  0  0  0  0  0  0  0
  -20.4590   20.3667  -42.6220 C   0  0  0  0  0  0  0  0  0  0  0  0
  -19.1408   20.2570  -42.3106 C   0  0  0  0  0  0  0  0  0  0  0  0
  -18.7313   20.3306  -40.9703 C   0  0  0  0  0  0  0  0  0  0  0  0
  -19.6147   20.5111  -39.9412 C   0  0  0  0  0  0  0  0  0  0  0  0
  -19.2034   20.6009  -38.5185 C   0  0  0  0  0  0  0  0  0  0  0  0
  -19.4501   19.4610  -37.8083 O   0  0  0  0  0  0  0  0  0  0  0  0
  -18.5956   19.1489  -36.7967 C   0  0  0  0  0  0  0  0  0  0  0  0
  -18.7914   17.7459  -36.2360 C   0  0  1  0  0  0  0  0  0  0  0  0
  -18.2454   17.6395  -34.9992 O   0  0  0  0  0  0  0  0  0  0  0  0
  -19.1628   17.1492  -34.0793 C   0  0  1  0  0  0  0  0  0  0  0  0
  -19.6669   18.1825  -33.2186 N   0  0  0  0  0  0  0  0  0  0  0  0
  -18.8756   19.2278  -32.8329 C   0  0  0  0  0  0  0  0  0  0  0  0
  -17.5165   19.4190  -33.1914 N   0  0  0  0  0  0  0  0  0  0  0  0
  -16.5115   19.3717  -32.1548 C   0  0  0  0  0  0  0  0  0  0  0  0
  -15.8541   18.0603  -32.0747 C   0  0  0  0  0  0  0  0  0  0  0  0
  -15.3899   17.3416  -33.1520 C   0  0  0  0  0  0  0  0  0  0  0  0
  -14.7765   16.1214  -33.0636 C   0  0  0  0  0  0  0  0  0  0  0  0
  -14.6081   15.5645  -31.7982 C   0  0  0  0  0  0  0  0  0  0  0  0
  -13.8478   14.0228  -31.5589 Cl  0  0  0  0  0  0  0  0  0  0  0  0
  -15.0627   16.2592  -30.6963 C   0  0  0  0  0  0  0  0  0  0  0  0
  -14.8848   15.6095  -29.0653 Cl  0  0  0  0  0  0  0  0  0  0  0  0
  -15.6679   17.4701  -30.8222 C   0  0  0  0  0  0  0  0  0  0  0  0
  -19.6214   20.0226  -32.0519 N   0  0  0  0  0  0  0  0  0  0  0  0
  -20.8683   19.5308  -31.9165 C   0  0  0  0  0  0  0  0  0  0  0  0
  -21.9973   19.9612  -31.2332 C   0  0  0  0  0  0  0  0  0  0  0  0
  -21.9414   21.1594  -30.4823 N   0  0  0  0  0  0  0  0  0  0  0  0
  -23.0887   19.1998  -31.3297 N   0  0  0  0  0  0  0  0  0  0  0  0
  -23.0984   18.0672  -32.0540 C   0  0  0  0  0  0  0  0  0  0  0  0
  -21.9933   17.6697  -32.7072 N   0  0  0  0  0  0  0  0  0  0  0  0
  -20.8648   18.3614  -32.6694 C   0  0  0  0  0  0  0  0  0  0  0  0
  -20.2276   16.4674  -34.9129 C   0  0  2  0  0  0  0  0  0  0  0  0
  -19.6483   15.2790  -35.4147 O   0  0  0  0  0  0  0  0  0  0  0  0
  -20.2596   17.4402  -36.0732 C   0  0  2  0  0  0  0  0  0  0  0  0
  -20.8108   16.8641  -37.2142 O   0  0  0  0  0  0  0  0  0  0  0  0
  -20.9684   20.6221  -40.2823 C   0  0  0  0  0  0  0  0  0  0  0  0
  -21.3859   20.5517  -41.5942 C   0  0  0  0  0  0  0  0  0  0  0  0
  1  2  3  0
  2  3  1  0
  3  4  2  0
  4  5  1  0
  5  6  2  0
  6  7  1  0
  7  8  1  0
  8  9  1  0
 10  9  1  1
 10 11  1  0
 11 12  1  0
 12 13  1  6
 13 14  1  0
 14 15  1  0
 15 16  1  0
 16 17  1  0
 17 18  2  0
 18 19  1  0
 19 20  2  0
 20 21  1  0
 20 22  1  0
 22 23  1  0
 22 24  2  0
 14 25  2  0
 25 26  1  0
 26 27  2  0
 27 28  1  0
 27 29  1  0
 29 30  2  0
 30 31  1  0
 31 32  2  0
 12 33  1  0
 33 34  1  6
 33 35  1  0
 35 36  1  6
  6 37  1  0
 37 38  2  0
 38  3  1  0
 35 10  1  0
 32 13  1  0
 24 17  1  0
 32 26  1  0
M  END
$$$$
