
     RDKit          3D

 32 35  0  0  0  0  0  0  0  0999 V2000
  -30.2722   21.7181  -25.1257 C   0  0  0  0  0  0  0  0  0  0  0  0
  -29.1984   21.7048  -26.1919 C   0  0  0  0  0  0  0  0  0  0  0  0
  -28.9680   20.3554  -26.6268 O   0  0  0  0  0  0  0  0  0  0  0  0
  -27.9609   20.1337  -27.5561 C   0  0  0  0  0  0  0  0  0  0  0  0
  -26.8291   19.4093  -27.2629 C   0  0  0  0  0  0  0  0  0  0  0  0
  -25.8508   19.2070  -28.2030 C   0  0  0  0  0  0  0  0  0  0  0  0
  -25.9372   19.7187  -29.5101 C   0  0  0  0  0  0  0  0  0  0  0  0
  -24.9302   19.4960  -30.4428 N   0  0  0  0  0  0  0  0  0  0  0  0
  -23.5746   19.8147  -30.4481 C   0  0  0  0  0  0  0  0  0  0  0  0
  -22.7634   20.4244  -29.1749 S   0  0  0  0  0  0  0  0  0  0  0  0
  -22.7888   19.6104  -31.6345 N   0  0  0  0  0  0  0  0  0  0  0  0
  -23.2293   18.5478  -32.5247 C   0  0  0  0  0  0  0  0  0  0  0  0
  -22.1881   18.4115  -33.6600 C   0  0  0  0  0  0  0  0  0  0  0  0
  -20.8426   18.4020  -32.9939 C   0  0  0  0  0  0  0  0  0  0  0  0
  -19.8064   17.5750  -33.6364 C   0  0  0  0  0  0  0  0  0  0  0  0
  -19.4122   18.1539  -34.8899 O   0  0  0  0  0  0  0  0  0  0  0  0
  -18.5638   17.2896  -32.9546 C   0  0  0  0  0  0  0  0  0  0  0  0
  -17.3066   17.5323  -33.4249 C   0  0  0  0  0  0  0  0  0  0  0  0
  -16.1981   17.1992  -32.6450 C   0  0  0  0  0  0  0  0  0  0  0  0
  -16.3520   16.6272  -31.4033 C   0  0  0  0  0  0  0  0  0  0  0  0
  -17.6036   16.3725  -30.9065 C   0  0  0  0  0  0  0  0  0  0  0  0
  -18.6718   16.7059  -31.6853 C   0  0  0  0  0  0  0  0  0  0  0  0
  -20.3999   16.2390  -34.0181 C   0  0  0  0  0  0  0  0  0  0  0  0
  -21.4785   15.7260  -33.3185 C   0  0  0  0  0  0  0  0  0  0  0  0
  -22.0551   14.5041  -33.6363 C   0  0  0  0  0  0  0  0  0  0  0  0
  -21.5490   13.7665  -34.6789 C   0  0  0  0  0  0  0  0  0  0  0  0
  -20.4754   14.2948  -35.3624 C   0  0  0  0  0  0  0  0  0  0  0  0
  -19.8994   15.4917  -35.0621 C   0  0  0  0  0  0  0  0  0  0  0  0
  -20.4845   19.7626  -32.5400 C   0  0  0  0  0  0  0  0  0  0  0  0
  -21.6600   20.4308  -31.8750 C   0  0  0  0  0  0  0  0  0  0  0  0
  -27.0711   20.4346  -29.7757 C   0  0  0  0  0  0  0  0  0  0  0  0
  -28.0830   20.6495  -28.8196 C   0  0  0  0  0  0  0  0  0  0  0  0
  1  2  1  0
  2  3  1  0
  3  4  1  0
  4  5  2  0
  5  6  1  0
  6  7  2  0
  7  8  1  0
  8  9  1  0
  9 10  2  0
  9 11  1  0
 11 12  1  0
 12 13  1  0
 13 14  1  0
 14 15  1  0
 15 16  1  0
 15 17  1  0
 17 18  2  0
 18 19  1  0
 19 20  2  0
 20 21  1  0
 21 22  2  0
 15 23  1  0
 23 24  2  0
 24 25  1  0
 25 26  2  0
 26 27  1  0
 27 28  2  0
 14 29  1  0
 29 30  1  0
  7 31  1  0
 31 32  2  0
 32  4  1  0
 30 11  1  0
 22 17  1  0
 28 23  1  0
M  END
$$$$
