
     RDKit          3D

 37 41  0  0  0  0  0  0  0  0999 V2000
  -17.5329   18.8088  -38.9827 C   0  0  0  0  0  0  0  0  0  0  0  0
  -16.0511   18.5671  -39.1107 C   0  0  0  0  0  0  0  0  0  0  0  0
  -15.3522   18.7959  -40.2297 N   0  0  0  0  0  0  0  0  0  0  0  0
  -14.1132   18.4619  -39.9293 N   0  0  0  0  0  0  0  0  0  0  0  0
  -14.0275   18.0310  -38.6491 C   0  0  0  0  0  0  0  0  0  0  0  0
  -12.7394   17.5996  -38.0766 C   0  0  0  0  0  0  0  0  0  0  0  0
  -11.6344   18.4009  -38.7570 C   0  0  0  0  0  0  0  0  0  0  0  0
  -12.5268   16.1495  -38.5289 C   0  0  0  0  0  0  0  0  0  0  0  0
  -15.2412   18.0958  -38.1331 N   0  0  0  0  0  0  0  0  0  0  0  0
  -15.6135   17.7311  -36.7876 C   0  0  1  0  0  0  0  0  0  0  0  0
  -16.1598   18.8586  -35.9639 C   0  0  0  0  0  0  0  0  0  0  0  0
  -16.3718   18.3287  -34.5588 C   0  0  2  0  0  0  0  0  0  0  0  0
  -15.1614   17.6462  -34.0117 C   0  0  0  0  0  0  0  0  0  0  0  0
  -15.2586   16.1937  -34.4303 C   0  0  0  0  0  0  0  0  0  0  0  0
  -16.5674   16.1772  -35.1856 C   0  0  2  0  0  0  0  0  0  0  0  0
  -16.3571   16.4414  -36.6686 C   0  0  0  0  0  0  0  0  0  0  0  0
  -17.3606   17.2776  -34.6132 N   0  0  0  0  0  0  0  0  0  0  0  0
  -17.7695   16.8188  -33.3114 C   0  0  0  0  0  0  0  0  0  0  0  0
  -17.2370   15.4628  -32.9496 C   0  0  0  0  0  0  0  0  0  0  0  0
  -17.9333   15.0433  -31.6633 C   0  0  2  0  0  0  0  0  0  0  0  0
  -17.3209   13.8542  -31.0969 N   0  0  0  0  0  0  0  0  0  0  0  0
  -17.0046   13.8497  -29.7292 C   0  0  0  0  0  0  0  0  0  0  0  0
  -17.2860   14.8474  -29.0169 O   0  0  0  0  0  0  0  0  0  0  0  0
  -16.3356   12.7003  -29.0489 C   0  0  0  0  0  0  0  0  0  0  0  0
  -14.9531   12.4543  -29.5629 C   0  0  0  0  0  0  0  0  0  0  0  0
  -13.9177   13.3826  -29.0132 C   0  0  0  0  0  0  0  0  0  0  0  0
  -13.9320   13.4478  -27.5090 C   0  0  0  0  0  0  0  0  0  0  0  0
  -13.0858   14.4717  -27.1328 F   0  0  0  0  0  0  0  0  0  0  0  0
  -13.5109   12.3012  -26.9031 F   0  0  0  0  0  0  0  0  0  0  0  0
  -15.3240   13.7783  -27.0162 C   0  0  0  0  0  0  0  0  0  0  0  0
  -16.3591   12.8409  -27.5630 C   0  0  0  0  0  0  0  0  0  0  0  0
  -19.3349   14.6600  -32.0392 C   0  0  0  0  0  0  0  0  0  0  0  0
  -20.4228   15.4393  -31.7042 C   0  0  0  0  0  0  0  0  0  0  0  0
  -21.6952   15.0354  -32.0782 C   0  0  0  0  0  0  0  0  0  0  0  0
  -21.9050   13.8712  -32.7788 C   0  0  0  0  0  0  0  0  0  0  0  0
  -20.8233   13.0866  -33.1175 C   0  0  0  0  0  0  0  0  0  0  0  0
  -19.5479   13.4929  -32.7418 C   0  0  0  0  0  0  0  0  0  0  0  0
  1  2  1  0
  2  3  2  0
  3  4  1  0
  4  5  2  0
  5  6  1  0
  6  7  1  0
  6  8  1  0
  5  9  1  0
 10  9  1  6
 10 11  1  0
 12 11  1  6
 12 13  1  0
 13 14  1  0
 15 14  1  1
 15 16  1  0
 15 17  1  0
 17 18  1  0
 18 19  1  0
 20 19  1  6
 20 21  1  0
 21 22  1  0
 22 23  2  0
 22 24  1  0
 24 25  1  0
 25 26  1  0
 26 27  1  0
 27 28  1  0
 27 29  1  0
 27 30  1  0
 30 31  1  0
 20 32  1  0
 32 33  2  0
 33 34  1  0
 34 35  2  0
 35 36  1  0
 36 37  2  0
  9  2  1  0
 16 10  1  0
 31 24  1  0
 37 32  1  0
 17 12  1  0
M  END
$$$$
