
     RDKit          3D

 11 11  0  0  0  0  0  0  0  0999 V2000
  -17.3112   40.2943  -21.6555 N   0  0  0  0  0  0  0  0  0  0  0  0
  -18.1213   39.1862  -21.9910 C   0  0  0  0  0  0  0  0  0  0  0  0
  -17.4936   38.1534  -22.8699 C   0  0  0  0  0  0  0  0  0  0  0  0
  -17.9800   36.7956  -22.6893 C   0  0  0  0  0  0  0  0  0  0  0  0
  -17.0894   35.8199  -22.2946 C   0  0  0  0  0  0  0  0  0  0  0  0
  -17.4742   34.5040  -22.1011 C   0  0  0  0  0  0  0  0  0  0  0  0
  -18.7966   34.1449  -22.3083 C   0  0  0  0  0  0  0  0  0  0  0  0
  -19.1268   32.8080  -22.0986 O   0  0  0  0  0  0  0  0  0  0  0  0
  -19.6909   35.0953  -22.6984 C   0  0  0  0  0  0  0  0  0  0  0  0
  -21.0186   34.7328  -22.9060 O   0  0  0  0  0  0  0  0  0  0  0  0
  -19.2870   36.4067  -22.8870 C   0  0  0  0  0  0  0  0  0  0  0  0
  1  2  1  0
  2  3  1  0
  3  4  1  0
  4  5  2  0
  5  6  1  0
  6  7  2  0
  7  8  1  0
  7  9  1  0
  9 10  1  0
  9 11  2  0
 11  4  1  0
M  END
$$$$
