
     RDKit          3D

 20 22  0  0  0  0  0  0  0  0999 V2000
  -17.6884   42.0891  -23.5574 C   0  0  0  0  0  0  0  0  0  0  0  0
  -18.3024   40.9801  -24.1316 O   0  0  0  0  0  0  0  0  0  0  0  0
  -18.2758   39.6994  -23.6400 C   0  0  0  0  0  0  0  0  0  0  0  0
  -17.8051   39.4633  -22.3365 C   0  0  0  0  0  0  0  0  0  0  0  0
  -17.7801   38.1738  -21.8463 C   0  0  0  0  0  0  0  0  0  0  0  0
  -18.2064   37.1023  -22.6027 C   0  0  0  0  0  0  0  0  0  0  0  0
  -18.1874   35.7114  -22.0945 C   0  0  0  0  0  0  0  0  0  0  0  0
  -17.3786   34.7845  -22.9601 C   0  0  0  0  0  0  0  0  0  0  0  0
  -17.8881   33.4713  -22.5370 N   0  0  0  0  0  0  0  0  0  0  0  0
  -19.2044   33.6254  -22.0292 C   0  0  0  0  0  0  0  0  0  0  0  0
  -19.9555   32.7285  -21.5814 O   0  0  0  0  0  0  0  0  0  0  0  0
  -19.5504   35.0648  -22.1200 C   0  0  0  0  0  0  0  0  0  0  0  0
  -18.6579   37.3601  -23.8633 C   0  0  0  0  0  0  0  0  0  0  0  0
  -18.7098   38.6605  -24.4275 C   0  0  0  0  0  0  0  0  0  0  0  0
  -19.1839   38.7825  -25.7021 O   0  0  0  0  0  0  0  0  0  0  0  0
  -20.1023   39.6041  -26.2655 C   0  0  0  0  0  0  0  0  0  0  0  0
  -21.3969   39.6882  -25.4167 C   0  0  0  0  0  0  0  0  0  0  0  0
  -22.3741   40.2959  -26.3734 C   0  0  0  0  0  0  0  0  0  0  0  0
  -21.8669   39.9820  -27.7702 C   0  0  0  0  0  0  0  0  0  0  0  0
  -20.7381   38.9981  -27.5407 C   0  0  0  0  0  0  0  0  0  0  0  0
  1  2  1  0
  2  3  1  0
  3  4  2  0
  4  5  1  0
  5  6  2  0
  6  7  1  0
  7  8  1  0
  8  9  1  0
  9 10  1  0
 10 11  2  0
 10 12  1  0
  6 13  1  0
 13 14  2  0
 14 15  1  0
 15 16  1  0
 16 17  1  0
 17 18  1  0
 18 19  1  0
 19 20  1  0
 14  3  1  0
 20 16  1  0
 12  7  1  0
M  END
$$$$
