
     RDKit          3D

 14 15  0  0  0  0  0  0  0  0999 V2000
  -12.9215   17.8972  -40.2981 Cl  0  0  0  0  0 15  0  0  0  0  0  0
  -14.5717   18.9695  -43.2856 C   0  0  0  0  0  0  0  0  0  0  0  0
  -13.2030   18.9699  -43.1893 C   0  0  0  0  0  0  0  0  0  0  0  0
  -12.5587   18.5717  -42.0778 C   0  0  0  0  0  0  0  0  0  0  0  0
  -13.2358   18.1125  -40.8968 C   0  0  0  0  0  0  0  0  0  0  0  0
  -14.5794   18.1307  -41.0411 C   0  0  0  0  0  0  0  0  0  0  0  0
  -15.2597   18.5316  -42.1624 C   0  0  0  0  0  0  0  0  0  0  0  0
  -15.3683   17.4345  -39.2340 I   0  0  0  0  0  2  0  0  0  0  0  0
  -13.3479   17.2593  -38.6209 C   0  0  0  0  0  0  0  0  0  0  0  0
  -12.8560   16.8198  -37.4094 C   0  0  0  0  0  0  0  0  0  0  0  0
  -11.5136   16.7834  -37.2163 C   0  0  0  0  0  0  0  0  0  0  0  0
  -10.7177   17.1881  -38.2429 C   0  0  0  0  0  0  0  0  0  0  0  0
  -11.2124   17.6167  -39.4256 C   0  0  0  0  0  0  0  0  0  0  0  0
  -12.6255   17.6788  -39.6926 C   0  0  0  0  0  0  0  0  0  0  0  0
  2  3  2  0
  3  4  1  0
  4  5  2  0
  5  6  1  0
  6  7  2  0
  6  8  1  0
  8  9  1  0
  9 10  2  0
 10 11  1  0
 11 12  2  0
 12 13  1  0
 13 14  2  0
  7  2  1  0
 14  9  1  0
 14  5  1  0
M  CHG  2   1  -1   8   1
M  END
$$$$
