
     RDKit          3D

 19 21  0  0  0  0  0  0  0  0999 V2000
  -19.2425   35.0412  -22.7024 C   0  0  0  0  0  0  0  0  0  0  0  0
  -19.8598   36.3433  -22.5992 N   0  0  0  0  0  0  0  0  0  0  0  0
  -19.0468   37.5064  -22.3699 C   0  0  0  0  0  0  0  0  0  0  0  0
  -19.3240   38.7480  -22.6072 O   0  0  0  0  0  0  0  0  0  0  0  0
  -18.3202   39.5599  -22.2636 C   0  0  0  0  0  0  0  0  0  0  0  0
  -18.4217   41.0027  -22.4467 C   0  0  0  0  0  0  0  0  0  0  0  0
  -19.6696   41.5813  -22.7502 C   0  0  0  0  0  0  0  0  0  0  0  0
  -19.8601   42.9104  -22.9379 C   0  0  0  0  0  0  0  0  0  0  0  0
  -18.7909   43.7620  -22.8314 C   0  0  0  0  0  0  0  0  0  0  0  0
  -17.5434   43.2643  -22.5371 C   0  0  0  0  0  0  0  0  0  0  0  0
  -16.4486   44.1030  -22.4247 C   0  0  0  0  0  0  0  0  0  0  0  0
  -15.2084   43.5962  -22.1313 C   0  0  0  0  0  0  0  0  0  0  0  0
  -15.0152   42.2487  -21.9409 C   0  0  0  0  0  0  0  0  0  0  0  0
  -16.1165   41.3924  -22.0526 C   0  0  0  0  0  0  0  0  0  0  0  0
  -17.3674   41.8812  -22.3460 C   0  0  0  0  0  0  0  0  0  0  0  0
  -17.3915   38.7486  -21.7938 N   0  0  0  0  0  0  0  0  0  0  0  0
  -17.7797   37.4675  -21.8327 C   0  0  0  0  0  0  0  0  0  0  0  0
  -17.0691   36.2904  -21.4181 C   0  0  0  0  0  0  0  0  0  0  0  0
  -16.4854   35.3503  -21.0955 N   0  0  0  0  0  0  0  0  0  0  0  0
  1  2  1  0
  2  3  1  0
  3  4  1  0
  4  5  1  0
  5  6  1  0
  6  7  2  0
  7  8  1  0
  8  9  2  0
  9 10  1  0
 10 11  2  0
 11 12  1  0
 12 13  2  0
 13 14  1  0
 14 15  2  0
  5 16  2  0
 16 17  1  0
 17 18  1  0
 18 19  3  0
 17  3  2  0
 15  6  1  0
 15 10  1  0
M  END
$$$$
