
     RDKit          3D

 38 41  0  0  0  0  0  0  0  0999 V2000
  -21.9660   19.6152  -31.0153 C   0  0  0  0  0  0  0  0  0  0  0  0
  -23.0631   20.6054  -31.4162 C   0  0  0  0  0  0  0  0  0  0  0  0
  -22.5027   21.8584  -32.0325 C   0  0  0  0  0  0  0  0  0  0  0  0
  -23.8719   19.9118  -32.3183 O   0  0  0  0  0  0  0  0  0  0  0  0
  -23.8721   20.9747  -30.1947 C   0  0  0  0  0  0  0  0  0  0  0  0
  -25.0856   21.7082  -30.5784 C   0  0  0  0  0  0  0  0  0  0  0  0
  -25.1370   22.9418  -30.4856 O   0  0  0  0  0  0  0  0  0  0  0  0
  -26.2099   20.9937  -31.0555 N   0  0  0  0  0  0  0  0  0  0  0  0
  -27.5168   21.1249  -30.5106 C   0  0  0  0  0  0  0  0  0  0  0  0
  -27.6076   21.7924  -29.1825 C   0  0  0  0  0  0  0  0  0  0  0  0
  -28.8790   21.5485  -28.5348 N   0  0  0  0  0  0  0  0  0  0  0  0
  -29.9098   22.4566  -28.7322 C   0  0  0  0  0  0  0  0  0  0  0  0
  -30.9373   22.0604  -27.9174 C   0  0  0  0  0  0  0  0  0  0  0  0
  -30.5576   20.9317  -27.2304 C   0  0  0  0  0  0  0  0  0  0  0  0
  -31.2056   20.1658  -26.3465 N   0  0  0  0  0  0  0  0  0  0  0  0
  -30.5955   19.0844  -25.8476 C   0  0  0  0  0  0  0  0  0  0  0  0
  -29.3480   18.7690  -26.2291 N   0  0  0  0  0  0  0  0  0  0  0  0
  -28.6460   19.5233  -27.1298 C   0  0  0  0  0  0  0  0  0  0  0  0
  -27.3740   19.0774  -27.5212 N   0  0  0  0  0  0  0  0  0  0  0  0
  -27.0920   17.6948  -27.7301 C   0  0  0  0  0  0  0  0  0  0  0  0
  -27.0626   16.7891  -26.6895 C   0  0  0  0  0  0  0  0  0  0  0  0
  -26.7874   15.4475  -26.8893 C   0  0  0  0  0  0  0  0  0  0  0  0
  -26.5282   14.9490  -28.1464 C   0  0  0  0  0  0  0  0  0  0  0  0
  -26.2453   13.6128  -28.4004 O   0  0  0  0  0  0  0  0  0  0  0  0
  -27.1395   12.5866  -28.2804 C   0  0  0  0  0  0  0  0  0  0  0  0
  -28.4055   12.7144  -28.7911 C   0  0  0  0  0  0  0  0  0  0  0  0
  -29.2886   11.6705  -28.6592 C   0  0  0  0  0  0  0  0  0  0  0  0
  -28.9529   10.4924  -28.0309 C   0  0  0  0  0  0  0  0  0  0  0  0
  -27.6644   10.4003  -27.5273 C   0  0  0  0  0  0  0  0  0  0  0  0
  -27.2120    9.1570  -26.8254 C   0  0  0  0  0  0  0  0  0  0  0  0
  -26.9985    8.1179  -27.7010 F   0  0  0  0  0  0  0  0  0  0  0  0
  -26.1008    9.3759  -26.0440 F   0  0  0  0  0  0  0  0  0  0  0  0
  -28.2573    8.8217  -25.9623 F   0  0  0  0  0  0  0  0  0  0  0  0
  -26.7657   11.4313  -27.6479 C   0  0  0  0  0  0  0  0  0  0  0  0
  -26.5572   15.8577  -29.1956 C   0  0  0  0  0  0  0  0  0  0  0  0
  -26.2270   15.2352  -30.8098 Cl  0  0  0  0  0  0  0  0  0  0  0  0
  -26.8331   17.2009  -28.9917 C   0  0  0  0  0  0  0  0  0  0  0  0
  -29.2399   20.6397  -27.6565 C   0  0  0  0  0  0  0  0  0  0  0  0
  1  2  1  0
  2  3  1  0
  2  4  1  0
  2  5  1  0
  5  6  1  0
  6  7  2  0
  6  8  1  0
  8  9  1  0
  9 10  1  0
 10 11  1  0
 11 12  1  0
 12 13  2  0
 13 14  1  0
 14 15  2  0
 15 16  1  0
 16 17  2  0
 17 18  1  0
 18 19  1  0
 19 20  1  0
 20 21  2  0
 21 22  1  0
 22 23  2  0
 23 24  1  0
 24 25  1  0
 25 26  2  0
 26 27  1  0
 27 28  2  0
 28 29  1  0
 29 30  1  0
 30 31  1  0
 30 32  1  0
 30 33  1  0
 29 34  2  0
 23 35  1  0
 35 36  1  0
 35 37  2  0
 18 38  2  0
 38 11  1  0
 38 14  1  0
 37 20  1  0
 34 25  1  0
M  END
$$$$
