
     RDKit          3D

 30 31  0  0  0  0  0  0  0  0999 V2000
  -21.1788   35.1060  -16.1261 C   0  0  0  0  0  0  0  0  0  0  0  0
  -20.5569   35.1034  -17.4815 C   0  0  0  0  0  0  0  0  0  0  0  0
  -19.5166   35.7613  -17.7272 O   0  0  0  0  0  0  0  0  0  0  0  0
  -21.1150   34.3561  -18.5535 N   0  0  0  0  0  0  0  0  0  0  0  0
  -20.5658   34.4142  -19.8618 C   0  0  0  0  0  0  0  0  0  0  0  0
  -20.8145   33.9395  -21.0114 N   0  0  0  0  0  0  0  0  0  0  0  0
  -20.1247   34.1618  -22.0743 C   0  0  0  0  0  0  0  0  0  0  0  0
  -20.4384   33.5830  -23.4468 C   0  0  0  0  0  0  0  0  0  0  0  0
  -19.0237   34.9826  -21.9604 C   0  0  0  0  0  0  0  0  0  0  0  0
  -17.8556   35.5406  -23.0550 S   0  0  0  0  0  6  0  0  0  0  0  0
  -17.4213   34.4173  -23.9537 O   0  0  0  0  0  0  0  0  0  0  0  0
  -16.6051   35.9180  -22.2686 O   0  0  0  0  0  0  0  0  0  0  0  0
  -18.3577   36.8739  -23.9644 N   0  0  0  0  0  0  0  0  0  0  0  0
  -18.3065   38.1897  -23.4289 C   0  0  0  0  0  0  0  0  0  0  0  0
  -17.9204   38.4012  -22.1254 C   0  0  0  0  0  0  0  0  0  0  0  0
  -17.8757   39.6867  -21.6152 C   0  0  0  0  0  0  0  0  0  0  0  0
  -18.2150   40.7653  -22.3995 C   0  0  0  0  0  0  0  0  0  0  0  0
  -18.2048   42.1766  -21.9611 C   0  0  0  0  0  0  0  0  0  0  0  0
  -18.4561   43.0303  -23.0637 O   0  0  0  0  0  0  0  0  0  0  0  0
  -16.7959   42.4919  -21.4607 C   0  0  0  0  0  0  0  0  0  0  0  0
  -16.7024   43.8384  -21.2053 F   0  0  0  0  0  0  0  0  0  0  0  0
  -15.8856   42.1510  -22.4431 F   0  0  0  0  0  0  0  0  0  0  0  0
  -16.5773   41.7239  -20.3337 F   0  0  0  0  0  0  0  0  0  0  0  0
  -19.1929   42.5411  -20.9152 C   0  0  0  0  0  0  0  0  0  0  0  0
  -20.4618   42.0981  -21.1031 F   0  0  0  0  0  0  0  0  0  0  0  0
  -18.7310   41.9996  -19.7169 F   0  0  0  0  0  0  0  0  0  0  0  0
  -19.1656   43.9208  -20.7107 F   0  0  0  0  0  0  0  0  0  0  0  0
  -18.6077   40.5598  -23.7226 C   0  0  0  0  0  0  0  0  0  0  0  0
  -18.6421   39.2756  -24.1999 C   0  0  0  0  0  0  0  0  0  0  0  0
  -19.0401   35.4034  -20.2799 S   0  0  0  0  0  0  0  0  0  0  0  0
  1  2  1  0
  2  3  2  0
  2  4  1  0
  4  5  1  0
  5  6  2  0
  6  7  1  0
  7  8  1  0
  7  9  2  0
  9 10  1  0
 10 11  2  0
 10 12  2  0
 10 13  1  0
 13 14  1  0
 14 15  2  0
 15 16  1  0
 16 17  2  0
 17 18  1  0
 18 19  1  0
 18 20  1  0
 20 21  1  0
 20 22  1  0
 20 23  1  0
 18 24  1  0
 24 25  1  0
 24 26  1  0
 24 27  1  0
 17 28  1  0
 28 29  2  0
  9 30  1  0
 30  5  1  0
 29 14  1  0
M  END
$$$$
