
     RDKit          3D

 30 32  0  0  0  0  0  0  0  0999 V2000
  -16.6135   20.1341  -42.9754 C   0  0  0  0  0  0  0  0  0  0  0  0
  -17.5574   20.7176  -42.1206 O   0  0  0  0  0  0  0  0  0  0  0  0
  -17.7635   20.2127  -40.8693 C   0  0  0  0  0  0  0  0  0  0  0  0
  -16.7405   19.5038  -40.2246 C   0  0  0  0  0  0  0  0  0  0  0  0
  -16.9049   18.9824  -38.9732 C   0  0  0  0  0  0  0  0  0  0  0  0
  -15.8516   18.2336  -38.2690 C   0  0  0  0  0  0  0  0  0  0  0  0
  -14.6786   18.3343  -38.6922 O   0  0  0  0  0  0  0  0  0  0  0  0
  -16.0742   17.4133  -37.1539 N   0  0  0  0  0  0  0  0  0  0  0  0
  -15.2760   17.1914  -36.0054 C   0  0  0  0  0  0  0  0  0  0  0  0
  -15.9159   16.6521  -34.7827 C   0  0  0  0  0  0  0  0  0  0  0  0
  -15.0313   16.4498  -33.6890 N   0  0  0  0  0  0  0  0  0  0  0  0
  -15.1503   15.0623  -33.2358 C   0  0  0  0  0  0  0  0  0  0  0  0
  -15.2547   17.3255  -32.5760 C   0  0  0  0  0  0  0  0  0  0  0  0
  -17.1638   17.4289  -34.3802 C   0  0  0  0  0  0  0  0  0  0  0  0
  -18.0086   17.2525  -35.6317 C   0  0  0  0  0  0  0  0  0  0  0  0
  -17.7065   15.8462  -36.0848 C   0  0  0  0  0  0  0  0  0  0  0  0
  -16.5804   15.3284  -35.2166 C   0  0  0  0  0  0  0  0  0  0  0  0
  -18.1298   19.1868  -38.3713 C   0  0  0  0  0  0  0  0  0  0  0  0
  -19.1486   19.8800  -38.9860 C   0  0  0  0  0  0  0  0  0  0  0  0
  -20.3412   20.0340  -38.3039 O   0  0  0  0  0  0  0  0  0  0  0  0
  -20.5472   19.4628  -37.0313 C   0  0  0  0  0  0  0  0  0  0  0  0
  -18.9625   20.4008  -40.2543 C   0  0  0  0  0  0  0  0  0  0  0  0
  -19.9946   21.0948  -40.8599 O   0  0  0  0  0  0  0  0  0  0  0  0
  -20.8984   20.4741  -41.7747 C   0  0  0  0  0  0  0  0  0  0  0  0
  -21.8440   21.5084  -42.2645 C   0  0  0  0  0  0  0  0  0  0  0  0
  -21.8472   21.9667  -43.5604 C   0  0  0  0  0  0  0  0  0  0  0  0
  -22.7444   22.9358  -43.9897 C   0  0  0  0  0  0  0  0  0  0  0  0
  -23.6670   23.4651  -43.1018 C   0  0  0  0  0  0  0  0  0  0  0  0
  -23.6625   23.0074  -41.8110 C   0  0  0  0  0  0  0  0  0  0  0  0
  -22.7733   22.0464  -41.3835 C   0  0  0  0  0  0  0  0  0  0  0  0
  1  2  1  0
  2  3  1  0
  3  4  2  0
  4  5  1  0
  5  6  1  0
  6  7  2  0
  6  8  1  0
  8  9  1  0
  9 10  1  0
 10 11  1  0
 11 12  1  0
 11 13  1  0
 10 14  1  0
 14 15  1  0
 15 16  1  0
 16 17  1  0
  5 18  2  0
 18 19  1  0
 19 20  1  0
 20 21  1  0
 19 22  2  0
 22 23  1  0
 23 24  1  0
 24 25  1  0
 25 26  2  0
 26 27  1  0
 27 28  2  0
 28 29  1  0
 29 30  2  0
 22  3  1  0
 30 25  1  0
 17 10  1  0
M  END
$$$$
