
     RDKit          3D

 20 22  0  0  0  0  0  0  0  0999 V2000
  -20.3066   41.1519  -19.4587 N   0  0  0  0  0  0  0  0  0  0  0  0
  -19.3053   40.5142  -20.2231 C   0  0  0  0  0  0  0  0  0  0  0  0
  -18.0525   41.0317  -20.3144 N   0  0  0  0  0  0  0  0  0  0  0  0
  -17.0763   40.4634  -21.0246 C   0  0  0  0  0  0  0  0  0  0  0  0
  -15.4739   41.2132  -21.0834 Cl  0  0  0  0  0  0  0  0  0  0  0  0
  -17.3207   39.3238  -21.6899 N   0  0  0  0  0  0  0  0  0  0  0  0
  -18.5336   38.7403  -21.6559 C   0  0  0  0  0  0  0  0  0  0  0  0
  -19.5254   39.3434  -20.9174 C   0  0  0  0  0  0  0  0  0  0  0  0
  -20.6218   38.5792  -21.0423 N   0  0  0  0  0  0  0  0  0  0  0  0
  -20.3032   37.5417  -21.8345 C   0  0  0  0  0  0  0  0  0  0  0  0
  -19.0197   37.6146  -22.2289 N   0  0  0  0  0  0  0  0  0  0  0  0
  -18.2727   36.6967  -23.0900 C   0  0  2  0  0  0  0  0  0  0  0  0
  -19.1794   35.7583  -23.5476 O   0  0  0  0  0  0  0  0  0  0  0  0
  -18.8945   34.5472  -22.9850 C   0  0  2  0  0  0  0  0  0  0  0  0
  -20.0899   33.6669  -22.7751 C   0  0  0  0  0  0  0  0  0  0  0  0
  -19.6536   32.5146  -22.1223 O   0  0  0  0  0  0  0  0  0  0  0  0
  -18.1656   34.8725  -21.7034 C   0  0  1  0  0  0  0  0  0  0  0  0
  -17.4700   33.8000  -21.1849 O   0  0  0  0  0  0  0  0  0  0  0  0
  -17.2486   35.9444  -22.2579 C   0  0  1  0  0  0  0  0  0  0  0  0
  -16.3623   35.3382  -23.1179 O   0  0  0  0  0  0  0  0  0  0  0  0
  1  2  1  0
  2  3  2  0
  3  4  1  0
  4  5  1  0
  4  6  2  0
  6  7  1  0
  7  8  2  0
  8  9  1  0
  9 10  2  0
 10 11  1  0
 12 11  1  1
 12 13  1  0
 13 14  1  0
 14 15  1  1
 15 16  1  0
 14 17  1  0
 17 18  1  6
 17 19  1  0
 19 20  1  6
  8  2  1  0
 19 12  1  0
 11  7  1  0
M  END
$$$$
