
     RDKit          3D

 33 37  0  0  0  0  0  0  0  0999 V2000
  -16.7149   13.6768  -32.3387 C   0  0  0  0  0  0  0  0  0  0  0  0
  -17.0459   15.0403  -32.7774 N   0  0  0  0  0  0  0  0  0  0  0  0
  -17.9851   15.3862  -33.6706 C   0  0  0  0  0  0  0  0  0  0  0  0
  -17.9807   16.7754  -33.8040 C   0  0  0  0  0  0  0  0  0  0  0  0
  -18.8735   17.5704  -34.6545 C   0  0  0  0  0  0  0  0  0  0  0  0
  -18.9551   17.3311  -36.0025 C   0  0  0  0  0  0  0  0  0  0  0  0
  -19.8152   18.0690  -36.7994 C   0  0  0  0  0  0  0  0  0  0  0  0
  -20.6067   19.0589  -36.2538 C   0  0  0  0  0  0  0  0  0  0  0  0
  -20.5004   19.2717  -34.9026 C   0  0  0  0  0  0  0  0  0  0  0  0
  -19.6610   18.5550  -34.1080 C   0  0  0  0  0  0  0  0  0  0  0  0
  -21.4375   20.3768  -34.5493 C   0  0  0  0  0  0  0  0  0  0  0  0
  -22.4489   20.3009  -35.6700 C   0  0  0  0  0  0  0  0  0  0  0  0
  -21.5697   19.9710  -36.8081 N   0  0  0  0  0  0  0  0  0  0  0  0
  -21.6615   20.4371  -38.1132 C   0  0  0  0  0  0  0  0  0  0  0  0
  -22.8313   20.7188  -38.5476 O   0  0  0  0  0  0  0  0  0  0  0  0
  -20.5342   20.6330  -39.0292 C   0  0  0  0  0  0  0  0  0  0  0  0
  -21.0325   20.6788  -40.4446 C   0  0  0  0  0  0  0  0  0  0  0  0
  -21.3440   19.4912  -41.0810 C   0  0  0  0  0  0  0  0  0  0  0  0
  -21.7997   19.5275  -42.3812 C   0  0  0  0  0  0  0  0  0  0  0  0
  -21.9459   20.7254  -43.0448 C   0  0  0  0  0  0  0  0  0  0  0  0
  -21.6303   21.8826  -42.3907 C   0  0  0  0  0  0  0  0  0  0  0  0
  -21.7739   23.2059  -43.0735 C   0  0  0  0  0  0  0  0  0  0  0  0
  -20.7785   24.0779  -42.6399 F   0  0  0  0  0  0  0  0  0  0  0  0
  -21.6270   23.0215  -44.4205 F   0  0  0  0  0  0  0  0  0  0  0  0
  -23.0222   23.6991  -42.7352 F   0  0  0  0  0  0  0  0  0  0  0  0
  -21.1728   21.8745  -41.0918 C   0  0  0  0  0  0  0  0  0  0  0  0
  -17.0059   17.2264  -32.9589 C   0  0  0  0  0  0  0  0  0  0  0  0
  -16.5190   18.4764  -32.6504 C   0  0  0  0  0  0  0  0  0  0  0  0
  -17.0919   19.6027  -33.3156 N   0  0  0  0  0  0  0  0  0  0  0  0
  -15.5227   18.6093  -31.7609 N   0  0  0  0  0  0  0  0  0  0  0  0
  -14.9635   17.5596  -31.1427 C   0  0  0  0  0  0  0  0  0  0  0  0
  -15.4228   16.3299  -31.4303 N   0  0  0  0  0  0  0  0  0  0  0  0
  -16.4155   16.1297  -32.3097 C   0  0  0  0  0  0  0  0  0  0  0  0
  1  2  1  0
  2  3  1  0
  3  4  2  0
  4  5  1  0
  5  6  2  0
  6  7  1  0
  7  8  2  0
  8  9  1  0
  9 10  2  0
  9 11  1  0
 11 12  1  0
 12 13  1  0
 13 14  1  0
 14 15  2  0
 14 16  1  0
 16 17  1  0
 17 18  2  0
 18 19  1  0
 19 20  2  0
 20 21  1  0
 21 22  1  0
 22 23  1  0
 22 24  1  0
 22 25  1  0
 21 26  2  0
  4 27  1  0
 27 28  2  0
 28 29  1  0
 28 30  1  0
 30 31  2  0
 31 32  1  0
 32 33  2  0
 33  2  1  0
 10  5  1  0
 26 17  1  0
 33 27  1  0
 13  8  1  0
M  END
$$$$
