
     RDKit          3D

 32 36  0  0  0  0  0  0  0  0999 V2000
  -39.5717    9.0099  -24.2581 C   0  0  0  0  0  0  0  0  0  0  0  0
  -38.5303    9.7148  -23.5932 N   0  0  0  0  0  0  0  0  0  0  0  0
  -37.5640   10.3508  -24.4261 C   0  0  0  0  0  0  0  0  0  0  0  0
  -37.8876   11.7799  -24.7279 C   0  0  0  0  0  0  0  0  0  0  0  0
  -38.0197   12.5127  -23.5136 N   0  0  0  0  0  0  0  0  0  0  0  0
  -36.8009   12.7591  -22.8106 C   0  0  0  0  0  0  0  0  0  0  0  0
  -35.8263   13.4510  -23.6687 C   0  0  0  0  0  0  0  0  0  0  0  0
  -35.9738   14.7908  -23.9136 C   0  0  0  0  0  0  0  0  0  0  0  0
  -35.0666   15.4756  -24.7199 C   0  0  0  0  0  0  0  0  0  0  0  0
  -33.9979   14.8107  -25.2883 C   0  0  0  0  0  0  0  0  0  0  0  0
  -33.0306   15.4360  -26.1184 N   0  0  0  0  0  0  0  0  0  0  0  0
  -31.8038   15.9523  -25.6254 C   0  0  0  0  0  0  0  0  0  0  0  0
  -31.6713   15.9827  -24.3921 O   0  0  0  0  0  0  0  0  0  0  0  0
  -30.7490   16.4245  -26.5317 C   0  0  0  0  0  0  0  0  0  0  0  0
  -30.0501   15.5797  -27.3654 N   0  0  0  0  0  0  0  0  0  0  0  0
  -29.1516   16.2586  -28.0463 N   0  0  0  0  0  0  0  0  0  0  0  0
  -29.2282   17.5398  -27.6923 C   0  0  0  0  0  0  0  0  0  0  0  0
  -30.2215   17.6561  -26.7483 C   0  0  0  0  0  0  0  0  0  0  0  0
  -30.5548   18.8707  -26.1563 N   0  0  0  0  0  0  0  0  0  0  0  0
  -30.1714   20.1735  -26.4464 C   0  0  0  0  0  0  0  0  0  0  0  0
  -30.7860   21.2947  -26.0669 N   0  0  0  0  0  0  0  0  0  0  0  0
  -30.3570   22.5257  -26.3830 C   0  0  0  0  0  0  0  0  0  0  0  0
  -29.2489   22.6855  -27.1226 N   0  0  0  0  0  0  0  0  0  0  0  0
  -28.5560   21.6183  -27.5555 C   0  0  0  0  0  0  0  0  0  0  0  0
  -27.4251   21.4786  -28.3026 N   0  0  0  0  0  0  0  0  0  0  0  0
  -27.1759   20.1676  -28.4348 C   0  0  0  0  0  0  0  0  0  0  0  0
  -28.1461   19.4329  -27.7721 C   0  0  0  0  0  0  0  0  0  0  0  0
  -29.0138   20.3497  -27.2194 C   0  0  0  0  0  0  0  0  0  0  0  0
  -33.8747   13.4657  -25.0252 C   0  0  0  0  0  0  0  0  0  0  0  0
  -34.7726   12.7754  -24.2239 C   0  0  0  0  0  0  0  0  0  0  0  0
  -39.0381   11.9417  -22.6956 C   0  0  0  0  0  0  0  0  0  0  0  0
  -38.9271   10.4724  -22.4508 C   0  0  0  0  0  0  0  0  0  0  0  0
  1  2  1  0
  2  3  1  0
  3  4  1  0
  4  5  1  0
  5  6  1  0
  6  7  1  0
  7  8  2  0
  8  9  1  0
  9 10  2  0
 10 11  1  0
 11 12  1  0
 12 13  2  0
 12 14  1  0
 14 15  2  0
 15 16  1  0
 16 17  1  0
 17 18  2  0
 18 19  1  0
 19 20  1  0
 20 21  2  0
 21 22  1  0
 22 23  2  0
 23 24  1  0
 24 25  1  0
 25 26  1  0
 26 27  2  0
 27 28  1  0
 10 29  1  0
 29 30  2  0
  5 31  1  0
 31 32  1  0
 32  2  1  0
 30  7  1  0
 18 14  1  0
 28 20  1  0
 28 24  2  0
M  END
$$$$
