
     RDKit          3D

 21 22  0  0  0  0  0  0  0  0999 V2000
  -18.8467   43.9432  -22.7907 O   0  0  0  0  0  0  0  0  0  0  0  0
  -18.8897   42.7912  -23.2806 C   0  0  0  0  0  0  0  0  0  0  0  0
  -19.2284   42.6838  -24.6499 N   0  0  0  0  0  0  0  0  0  0  0  0
  -19.4998   43.8020  -25.4029 O   0  0  0  0  0  0  0  0  0  0  0  0
  -18.5896   41.6383  -22.4143 C   0  0  0  0  0  0  0  0  0  0  0  0
  -18.7153   41.6908  -21.0546 C   0  0  0  0  0  0  0  0  0  0  0  0
  -18.4312   40.6047  -20.2564 C   0  0  0  0  0  0  0  0  0  0  0  0
  -17.9991   39.3950  -20.8109 C   0  0  0  0  0  0  0  0  0  0  0  0
  -17.8718   39.3389  -22.1774 C   0  0  0  0  0  0  0  0  0  0  0  0
  -17.4273   38.1100  -22.8133 C   0  0  0  0  0  0  0  0  0  0  0  0
  -16.3141   38.1170  -23.3924 O   0  0  0  0  0  0  0  0  0  0  0  0
  -18.2013   36.9415  -22.7929 N   0  0  0  0  0  0  0  0  0  0  0  0
  -17.5938   35.6178  -22.5751 C   0  0  0  0  0  0  0  0  0  0  0  0
  -18.4753   34.8501  -21.6537 C   0  0  0  0  0  0  0  0  0  0  0  0
  -17.9586   33.4793  -21.3799 C   0  0  0  0  0  0  0  0  0  0  0  0
  -18.3105   32.4766  -22.2645 C   0  0  0  0  0  0  0  0  0  0  0  0
  -17.8988   31.1784  -22.1206 C   0  0  0  0  0  0  0  0  0  0  0  0
  -17.0993   30.8964  -21.0337 C   0  0  0  0  0  0  0  0  0  0  0  0
  -16.7304   31.8915  -20.1264 C   0  0  0  0  0  0  0  0  0  0  0  0
  -17.1640   33.1858  -20.3043 C   0  0  0  0  0  0  0  0  0  0  0  0
  -18.1662   40.4532  -22.9604 C   0  0  0  0  0  0  0  0  0  0  0  0
  1  2  2  0
  2  3  1  0
  3  4  1  0
  2  5  1  0
  5  6  2  0
  6  7  1  0
  7  8  2  0
  8  9  1  0
  9 10  1  0
 10 11  2  0
 10 12  1  0
 12 13  1  0
 13 14  1  0
 14 15  1  0
 15 16  2  0
 16 17  1  0
 17 18  2  0
 18 19  1  0
 19 20  2  0
  9 21  2  0
 21  5  1  0
 20 15  1  0
M  END
$$$$
