
     RDKit          3D

 14 15  0  0  0  0  0  0  0  0999 V2000
  -16.2082   15.7280  -32.9894 O   0  0  0  0  0  0  0  0  0  0  0  0
  -16.3959   15.0351  -31.9604 C   0  0  0  0  0  0  0  0  0  0  0  0
  -17.6828   14.8764  -31.3774 N   0  0  0  0  0  0  0  0  0  0  0  0
  -18.8298   15.3363  -32.0782 C   0  0  0  0  0  0  0  0  0  0  0  0
  -20.0162   14.6384  -32.1471 C   0  0  0  0  0  0  0  0  0  0  0  0
  -21.1105   15.1266  -32.8432 C   0  0  0  0  0  0  0  0  0  0  0  0
  -20.9897   16.3448  -33.4772 C   0  0  0  0  0  0  0  0  0  0  0  0
  -19.8270   17.0733  -33.4346 C   0  0  0  0  0  0  0  0  0  0  0  0
  -18.7471   16.5505  -32.7247 C   0  0  0  0  0  0  0  0  0  0  0  0
  -15.2391   14.3683  -31.3434 C   0  0  0  0  0  0  0  0  0  0  0  0
  -13.9130   14.5440  -31.6984 C   0  0  0  0  0  0  0  0  0  0  0  0
  -13.1289   13.7473  -30.8907 C   0  0  0  0  0  0  0  0  0  0  0  0
  -13.9839   13.1047  -30.0636 N   0  0  0  0  0  0  0  0  0  0  0  0
  -15.2309   13.4810  -30.3417 N   0  0  0  0  0  0  0  0  0  0  0  0
  1  2  2  0
  2  3  1  0
  3  4  1  0
  4  5  2  0
  5  6  1  0
  6  7  2  0
  7  8  1  0
  8  9  2  0
  2 10  1  0
 10 11  1  0
 11 12  2  0
 12 13  1  0
 13 14  1  0
  9  4  1  0
 14 10  2  0
M  END
$$$$
