
     RDKit          3D

 21 23  0  0  0  0  0  0  0  0999 V2000
  -17.9985   35.3968  -23.4253 C   0  0  0  0  0  0  0  0  0  0  0  0
  -19.1552   36.2752  -22.9356 C   0  0  0  0  0  0  0  0  0  0  0  0
  -19.7873   35.6225  -21.7872 C   0  0  0  0  0  0  0  0  0  0  0  0
  -21.0053   35.8158  -21.5541 O   0  0  0  0  0  0  0  0  0  0  0  0
  -19.0910   34.7769  -20.9177 O   0  0  0  0  0  0  0  0  0  0  0  0
  -18.6377   37.6215  -22.6284 C   0  0  0  0  0  0  0  0  0  0  0  0
  -17.2923   37.7739  -22.3587 C   0  0  0  0  0  0  0  0  0  0  0  0
  -16.7380   38.9947  -22.0646 C   0  0  0  0  0  0  0  0  0  0  0  0
  -17.5608   40.0986  -22.0404 C   0  0  0  0  0  0  0  0  0  0  0  0
  -17.0247   41.3795  -21.7402 N   0  0  0  0  0  0  0  0  0  0  0  0
  -15.7835   41.9135  -22.2269 C   0  0  0  0  0  0  0  0  0  0  0  0
  -15.6427   43.2629  -21.6554 C   0  0  0  0  0  0  0  0  0  0  0  0
  -14.6233   44.2125  -21.8064 C   0  0  0  0  0  0  0  0  0  0  0  0
  -14.6793   45.4375  -21.1772 C   0  0  0  0  0  0  0  0  0  0  0  0
  -15.7809   45.7123  -20.3816 C   0  0  0  0  0  0  0  0  0  0  0  0
  -16.7776   44.7720  -20.2397 C   0  0  0  0  0  0  0  0  0  0  0  0
  -16.7209   43.5455  -20.8700 C   0  0  0  0  0  0  0  0  0  0  0  0
  -17.5903   42.3817  -20.9132 C   0  0  0  0  0  0  0  0  0  0  0  0
  -18.6898   42.2520  -20.3154 O   0  0  0  0  0  0  0  0  0  0  0  0
  -18.9247   39.9927  -22.3062 C   0  0  0  0  0  0  0  0  0  0  0  0
  -19.4282   38.7428  -22.5955 C   0  0  0  0  0  0  0  0  0  0  0  0
  1  2  1  0
  2  3  1  0
  3  4  2  0
  3  5  1  0
  2  6  1  0
  6  7  2  0
  7  8  1  0
  8  9  2  0
  9 10  1  0
 10 11  1  0
 11 12  1  0
 12 13  2  0
 13 14  1  0
 14 15  2  0
 15 16  1  0
 16 17  2  0
 17 18  1  0
 18 19  2  0
  9 20  1  0
 20 21  2  0
 21  6  1  0
 18 10  1  0
 17 12  1  0
M  END
$$$$
