
     RDKit          3D

 23 26  0  0  0  0  0  0  0  0999 V2000
   -9.6436   11.3148  -26.8315 C   0  0  0  0  0  0  0  0  0  0  0  0
  -11.2849   11.6834  -26.2164 S   0  0  0  0  0  0  0  0  0  0  0  0
  -12.2429   12.4451  -27.5241 C   0  0  0  0  0  0  0  0  0  0  0  0
  -12.2041   12.7192  -28.6339 N   0  0  0  0  0  0  0  0  0  0  0  0
  -13.0899   13.3099  -29.4097 C   0  0  0  0  0  0  0  0  0  0  0  0
  -13.0009   13.6261  -30.7632 C   0  0  0  0  0  0  0  0  0  0  0  0
  -14.0507   14.2477  -31.3833 C   0  0  0  0  0  0  0  0  0  0  0  0
  -15.2370   14.6031  -30.7616 C   0  0  0  0  0  0  0  0  0  0  0  0
  -16.3080   15.2482  -31.4355 N   0  0  0  0  0  0  0  0  0  0  0  0
  -17.6619   14.8466  -31.2821 C   0  0  0  0  0  0  0  0  0  0  0  0
  -17.9571   14.0058  -30.4078 O   0  0  0  0  0  0  0  0  0  0  0  0
  -18.7283   15.4040  -32.1366 C   0  0  0  0  0  0  0  0  0  0  0  0
  -20.0696   15.1034  -32.0341 C   0  0  0  0  0  0  0  0  0  0  0  0
  -20.6996   15.8346  -33.0112 C   0  0  0  0  0  0  0  0  0  0  0  0
  -22.0212   15.9439  -33.3867 C   0  0  0  0  0  0  0  0  0  0  0  0
  -22.3869   16.7844  -34.4428 C   0  0  0  0  0  0  0  0  0  0  0  0
  -21.4074   17.4938  -35.0934 C   0  0  0  0  0  0  0  0  0  0  0  0
  -20.1036   17.3933  -34.7315 C   0  0  0  0  0  0  0  0  0  0  0  0
  -19.7348   16.5581  -33.6811 C   0  0  0  0  0  0  0  0  0  0  0  0
  -18.5935   16.2575  -33.1144 O   0  0  0  0  0  0  0  0  0  0  0  0
  -15.3278   14.2886  -29.4117 C   0  0  0  0  0  0  0  0  0  0  0  0
  -14.2459   13.6494  -28.7780 C   0  0  0  0  0  0  0  0  0  0  0  0
  -14.0048   13.1083  -27.1168 S   0  0  0  0  0  0  0  0  0  0  0  0
  1  2  1  0
  2  3  1  0
  3  4  2  0
  4  5  1  0
  5  6  2  0
  6  7  1  0
  7  8  2  0
  8  9  1  0
  9 10  1  0
 10 11  2  0
 10 12  1  0
 12 13  2  0
 13 14  1  0
 14 15  2  0
 15 16  1  0
 16 17  2  0
 17 18  1  0
 18 19  2  0
 19 20  1  0
  8 21  1  0
 21 22  2  0
 22 23  1  0
 23  3  1  0
 22  5  1  0
 20 12  1  0
 19 14  1  0
M  END
$$$$
