
     RDKit          3D

 17 19  0  0  0  0  0  0  0  0999 V2000
  -21.0946   33.5538  -23.0895 C   0  0  0  0  0  0  0  0  0  0  0  0
  -20.0571   33.5959  -22.1482 O   0  0  0  0  0  0  0  0  0  0  0  0
  -19.2208   34.7010  -22.0081 C   0  0  0  0  0  0  0  0  0  0  0  0
  -18.2017   34.6284  -21.0903 C   0  0  0  0  0  0  0  0  0  0  0  0
  -17.3845   35.7257  -20.9625 C   0  0  0  0  0  0  0  0  0  0  0  0
  -17.5620   36.8658  -21.7161 C   0  0  0  0  0  0  0  0  0  0  0  0
  -16.9212   38.0431  -21.7816 N   0  0  0  0  0  0  0  0  0  0  0  0
  -17.4958   38.8426  -22.6980 C   0  0  0  0  0  0  0  0  0  0  0  0
  -18.5699   38.1765  -23.2752 C   0  0  0  0  0  0  0  0  0  0  0  0
  -19.4592   38.6922  -24.3114 C   0  0  0  0  0  0  0  0  0  0  0  0
  -19.2920   39.9577  -24.6979 C   0  0  0  0  0  0  0  0  0  0  0  0
  -20.1007   40.6439  -25.7325 C   0  0  0  0  0  0  0  0  0  0  0  0
  -21.4511   40.0634  -25.6468 N   0  0  0  0  0  0  0  0  0  0  0  0
  -21.2754   38.6833  -26.0305 C   0  0  0  0  0  0  0  0  0  0  0  0
  -20.5130   37.9065  -24.9483 C   0  0  0  0  0  0  0  0  0  0  0  0
  -18.5913   36.9571  -22.6526 C   0  0  0  0  0  0  0  0  0  0  0  0
  -19.3930   35.8459  -22.7595 C   0  0  0  0  0  0  0  0  0  0  0  0
  1  2  1  0
  2  3  1  0
  3  4  2  0
  4  5  1  0
  5  6  2  0
  6  7  1  0
  7  8  1  0
  8  9  2  0
  9 10  1  0
 10 11  2  0
 11 12  1  0
 12 13  1  0
 13 14  1  0
 14 15  1  0
  9 16  1  0
 16 17  2  0
 17  3  1  0
 16  6  1  0
 15 10  1  0
M  END
$$$$
