
     RDKit          3D

 29 33  0  0  0  0  0  0  0  0999 V2000
  -21.4189   44.6015  -29.0159 C   0  0  0  0  0  0  0  0  0  0  0  0
  -21.0387   44.4877  -27.5903 C   0  0  0  0  0  0  0  0  0  0  0  0
  -21.5608   43.2306  -26.9543 C   0  0  0  0  0  0  0  0  0  0  0  0
  -21.1793   45.7306  -26.7159 C   0  0  0  0  0  0  0  0  0  0  0  0
  -19.9663   45.3485  -26.0350 N   0  0  0  0  0  0  0  0  0  0  0  0
  -19.3202   45.3704  -24.7890 C   0  0  0  0  0  0  0  0  0  0  0  0
  -19.1057   46.5080  -24.2332 O   0  0  0  0  0  0  0  0  0  0  0  0
  -18.8501   44.2077  -24.0391 C   0  0  0  0  0  0  0  0  0  0  0  0
  -19.2895   43.9765  -22.7538 C   0  0  0  0  0  0  0  0  0  0  0  0
  -18.8615   42.8671  -22.0812 C   0  0  0  0  0  0  0  0  0  0  0  0
  -17.9849   41.9485  -22.6625 C   0  0  0  0  0  0  0  0  0  0  0  0
  -17.6053   40.8085  -21.8305 C   0  0  0  0  0  0  0  0  0  0  0  0
  -16.9406   40.9650  -20.6431 C   0  0  0  0  0  0  0  0  0  0  0  0
  -16.5813   39.9245  -19.8003 C   0  0  0  0  0  0  0  0  0  0  0  0
  -16.9300   38.6460  -20.2055 C   0  0  0  0  0  0  0  0  0  0  0  0
  -17.5943   38.5057  -21.3942 C   0  0  0  0  0  0  0  0  0  0  0  0
  -18.0716   37.3951  -22.0415 N   0  0  0  0  0  0  0  0  0  0  0  0
  -18.6749   37.7481  -23.1933 C   0  0  0  0  0  0  0  0  0  0  0  0
  -19.3033   36.8377  -24.1256 N   0  0  0  0  0  0  0  0  0  0  0  0
  -20.4446   37.2420  -24.8649 C   0  0  0  0  0  0  0  0  0  0  0  0
  -20.7769   38.4554  -24.8015 O   0  0  0  0  0  0  0  0  0  0  0  0
  -21.2699   36.3381  -25.7039 C   0  0  0  0  0  0  0  0  0  0  0  0
  -21.5773   36.9402  -27.1125 C   0  0  0  0  0  0  0  0  0  0  0  0
  -22.6404   36.8022  -26.0891 C   0  0  0  0  0  0  0  0  0  0  0  0
  -18.5711   39.0738  -23.2592 N   0  0  0  0  0  0  0  0  0  0  0  0
  -17.9340   39.5354  -22.1993 N   0  0  0  0  0  0  0  0  0  0  0  0
  -17.5314   42.1529  -23.9376 C   0  0  0  0  0  0  0  0  0  0  0  0
  -17.9775   43.2806  -24.5926 C   0  0  0  0  0  0  0  0  0  0  0  0
  -19.5596   44.7710  -27.3479 C   0  0  0  0  0  0  0  0  0  0  0  0
  1  2  1  0
  2  3  1  0
  2  4  1  0
  4  5  1  0
  5  6  1  0
  6  7  2  0
  6  8  1  0
  8  9  2  0
  9 10  1  0
 10 11  2  0
 11 12  1  0
 12 13  2  0
 13 14  1  0
 14 15  2  0
 15 16  1  0
 16 17  2  0
 17 18  1  0
 18 19  1  0
 19 20  1  0
 20 21  2  0
 20 22  1  0
 22 23  1  0
 23 24  1  0
 18 25  2  0
 25 26  1  0
 11 27  1  0
 27 28  2  0
  5 29  1  0
 29  2  1  0
 28  8  1  0
 26 12  1  0
 26 16  1  0
 24 22  1  0
M  END
$$$$
