
     RDKit          3D

 34 36  0  0  0  0  0  0  0  0999 V2000
  -23.1157   16.9082  -10.6497 C   0  0  0  0  0  0  0  0  0  0  0  0
  -21.6677   16.9810  -11.1120 C   0  0  0  0  0  0  0  0  0  0  0  0
  -21.3412   16.1748  -11.9859 O   0  0  0  0  0  0  0  0  0  0  0  0
  -20.8335   17.9824  -10.4863 C   0  0  0  0  0  0  0  0  0  0  0  0
  -21.2780   18.4224   -9.2176 C   0  0  0  0  0  0  0  0  0  0  0  0
  -20.5401   19.2471   -8.4609 N   0  0  0  0  0  0  0  0  0  0  0  0
  -19.3486   19.6900   -8.8747 C   0  0  0  0  0  0  0  0  0  0  0  0
  -18.6428   20.5393   -8.0376 C   0  0  0  0  0  0  0  0  0  0  0  0
  -17.4055   20.9955   -8.4772 C   0  0  0  0  0  0  0  0  0  0  0  0
  -16.9148   20.6150   -9.6890 C   0  0  0  0  0  0  0  0  0  0  0  0
  -15.6134   21.0602  -10.2090 C   0  0  0  0  0  0  0  0  0  0  0  0
  -14.8247   21.8909   -9.4938 C   0  0  0  0  0  0  0  0  0  0  0  0
  -13.5766   22.3358   -9.9587 C   0  0  0  0  0  0  0  0  0  0  0  0
  -12.5642   23.4100   -9.0266 Cl  0  0  0  0  0  0  0  0  0  0  0  0
  -13.1589   21.9071  -11.1748 C   0  0  0  0  0  0  0  0  0  0  0  0
  -11.9490   22.2778  -11.7352 O   0  0  0  0  0  0  0  0  0  0  0  0
  -13.9665   21.0526  -11.9148 C   0  0  0  0  0  0  0  0  0  0  0  0
  -13.4210   20.4988  -13.4940 Cl  0  0  0  0  0  0  0  0  0  0  0  0
  -15.1898   20.6188  -11.4549 C   0  0  0  0  0  0  0  0  0  0  0  0
  -17.6688   19.7755  -10.4590 N   0  0  0  0  0  0  0  0  0  0  0  0
  -18.8622   19.3053  -10.0896 C   0  0  0  0  0  0  0  0  0  0  0  0
  -19.6263   18.4320  -10.9148 C   0  0  0  0  0  0  0  0  0  0  0  0
  -19.1109   18.2210  -12.1866 N   0  0  0  0  0  0  0  0  0  0  0  0
  -19.5808   17.7274  -13.4320 C   0  0  1  0  0  0  0  0  0  0  0  0
  -20.7118   18.5711  -13.9588 C   0  0  0  0  0  0  0  0  0  0  0  0
  -21.1935   18.1177  -15.2985 C   0  0  0  0  0  0  0  0  0  0  0  0
  -20.1167   17.8727  -16.3108 C   0  0  2  0  0  0  0  0  0  0  0  0
  -20.7057   17.0291  -17.4290 C   0  0  0  0  0  0  0  0  0  0  0  0
  -19.7773   16.7150  -18.4676 N   0  0  0  0  0  0  0  0  0  0  0  0
  -19.3646   17.8277  -19.2630 C   0  0  0  0  0  0  0  0  0  0  0  0
  -20.2331   15.6296  -19.2902 C   0  0  0  0  0  0  0  0  0  0  0  0
  -18.8878   17.2422  -15.7329 C   0  0  0  0  0  0  0  0  0  0  0  0
  -18.4529   18.0097  -14.5179 C   0  0  0  0  0  0  0  0  0  0  0  0
  -19.0914   18.3090  -13.6490 Cl  0  0  0  0  0  0  0  0  0  0  0  0
  1  2  1  0
  2  3  2  0
  2  4  1  0
  4  5  2  0
  5  6  1  0
  6  7  2  0
  7  8  1  0
  8  9  2  0
  9 10  1  0
 10 11  1  0
 11 12  2  0
 12 13  1  0
 13 14  1  0
 13 15  2  0
 15 16  1  0
 15 17  1  0
 17 18  1  0
 17 19  2  0
 10 20  2  0
 20 21  1  0
 21 22  2  0
 22 23  1  0
 24 23  1  1
 24 25  1  0
 25 26  1  0
 26 27  1  0
 27 28  1  6
 28 29  1  0
 29 30  1  0
 29 31  1  0
 27 32  1  0
 32 33  1  0
 22  4  1  0
 33 24  1  0
 21  7  1  0
 19 11  1  0
M  END
$$$$
