
     RDKit          3D

 31 35  0  0  0  0  0  0  0  0999 V2000
  -16.9417   14.7982  -29.1205 O   0  0  0  0  0  0  0  0  0  0  0  0
  -15.8177   14.7579  -29.6856 C   0  0  0  0  0  0  0  0  0  0  0  0
  -15.6101   15.5865  -30.8090 N   0  0  0  0  0  0  0  0  0  0  0  0
  -15.2342   15.1219  -32.1188 C   0  0  0  0  0  0  0  0  0  0  0  0
  -15.7709   16.0397  -33.1539 C   0  0  0  0  0  0  0  0  0  0  0  0
  -17.1201   15.7805  -33.5504 N   0  0  0  0  0  0  0  0  0  0  0  0
  -17.6313   16.6900  -34.5027 C   0  0  0  0  0  0  0  0  0  0  0  0
  -18.9731   17.2561  -34.1873 C   0  0  0  0  0  0  0  0  0  0  0  0
  -19.9783   16.1822  -33.8416 C   0  0  0  0  0  0  0  0  0  0  0  0
  -21.2112   16.7689  -33.3688 N   0  0  0  0  0  0  0  0  0  0  0  0
  -21.5324   18.0677  -33.2427 C   0  0  0  0  0  0  0  0  0  0  0  0
  -20.7994   19.0510  -33.5204 O   0  0  0  0  0  0  0  0  0  0  0  0
  -22.7831   18.2109  -32.7641 N   0  0  0  0  0  0  0  0  0  0  0  0
  -23.2986   16.9850  -32.5701 C   0  0  0  0  0  0  0  0  0  0  0  0
  -24.5329   16.5261  -32.0993 C   0  0  0  0  0  0  0  0  0  0  0  0
  -24.7613   15.1848  -32.0154 C   0  0  0  0  0  0  0  0  0  0  0  0
  -23.7604   14.3008  -32.4004 C   0  0  0  0  0  0  0  0  0  0  0  0
  -22.5317   14.7418  -32.8691 C   0  0  0  0  0  0  0  0  0  0  0  0
  -22.3240   16.1053  -32.9449 C   0  0  0  0  0  0  0  0  0  0  0  0
  -19.4111   15.1474  -32.9276 C   0  0  0  0  0  0  0  0  0  0  0  0
  -17.9965   15.3708  -32.5115 C   0  0  0  0  0  0  0  0  0  0  0  0
  -14.7563   13.8653  -29.1778 C   0  0  0  0  0  0  0  0  0  0  0  0
  -13.7462   14.2572  -28.3302 C   0  0  0  0  0  0  0  0  0  0  0  0
  -12.9454   13.1526  -28.0738 C   0  0  0  0  0  0  0  0  0  0  0  0
  -11.8126   12.9120  -27.3229 C   0  0  0  0  0  0  0  0  0  0  0  0
  -11.2122   11.6813  -27.2490 C   0  0  0  0  0  0  0  0  0  0  0  0
  -10.0935   11.4540  -26.5044 F   0  0  0  0  0  0  0  0  0  0  0  0
  -11.7593   10.6261  -27.9556 C   0  0  0  0  0  0  0  0  0  0  0  0
  -12.8873   10.8538  -28.7067 C   0  0  0  0  0  0  0  0  0  0  0  0
  -13.4748   12.0977  -28.7675 C   0  0  0  0  0  0  0  0  0  0  0  0
  -14.5570   12.5644  -29.4152 N   0  0  0  0  0  0  0  0  0  0  0  0
  1  2  2  0
  2  3  1  0
  3  4  1  0
  4  5  1  0
  5  6  1  0
  6  7  1  0
  7  8  1  0
  8  9  1  0
  9 10  1  0
 10 11  1  0
 11 12  2  0
 11 13  1  0
 13 14  1  0
 14 15  2  0
 15 16  1  0
 16 17  2  0
 17 18  1  0
 18 19  2  0
  9 20  1  0
 20 21  1  0
  2 22  1  0
 22 23  2  0
 23 24  1  0
 24 25  2  0
 25 26  1  0
 26 27  1  0
 26 28  2  0
 28 29  1  0
 29 30  2  0
 30 31  1  0
 21  6  1  0
 31 22  1  0
 19 10  1  0
 30 24  1  0
 19 14  1  0
M  END
$$$$
