
     RDKit          3D

 38 42  0  0  0  0  0  0  0  0999 V2000
  -15.1038   24.0761  -45.6540 C   0  0  0  0  0  0  0  0  0  0  0  0
  -14.4335   22.7932  -45.2977 C   0  0  0  0  0  0  0  0  0  0  0  0
  -13.0275   23.0591  -44.7600 C   0  0  0  0  0  0  0  0  0  0  0  0
  -14.2826   21.8491  -46.4633 C   0  0  0  0  0  0  0  0  0  0  0  0
  -15.1752   22.0998  -44.1966 C   0  0  0  0  0  0  0  0  0  0  0  0
  -16.3326   22.5302  -43.5521 C   0  0  0  0  0  0  0  0  0  0  0  0
  -16.6633   21.5855  -42.6098 C   0  0  0  0  0  0  0  0  0  0  0  0
  -17.7451   21.5380  -41.6881 N   0  0  0  0  0  0  0  0  0  0  0  0
  -19.0485   22.0513  -41.9992 C   0  0  0  0  0  0  0  0  0  0  0  0
  -19.1243   23.1205  -42.5941 O   0  0  0  0  0  0  0  0  0  0  0  0
  -20.2319   21.3769  -41.6488 N   0  0  0  0  0  0  0  0  0  0  0  0
  -21.4217   21.8481  -41.1205 C   0  0  0  0  0  0  0  0  0  0  0  0
  -21.5195   21.9170  -39.7259 C   0  0  0  0  0  0  0  0  0  0  0  0
  -22.6401   22.3757  -39.0782 C   0  0  0  0  0  0  0  0  0  0  0  0
  -23.7293   22.7931  -39.7894 C   0  0  0  0  0  0  0  0  0  0  0  0
  -24.8696   23.2615  -39.1479 O   0  0  0  0  0  0  0  0  0  0  0  0
  -25.1639   24.5782  -38.8893 C   0  0  0  0  0  0  0  0  0  0  0  0
  -26.0421   25.2614  -39.7478 C   0  0  0  0  0  0  0  0  0  0  0  0
  -26.3791   26.5708  -39.5513 C   0  0  0  0  0  0  0  0  0  0  0  0
  -25.8522   27.2045  -38.5120 N   0  0  0  0  0  0  0  0  0  0  0  0
  -25.0098   26.5919  -37.6668 C   0  0  0  0  0  0  0  0  0  0  0  0
  -24.5265   27.3384  -36.6309 N   0  0  0  0  0  0  0  0  0  0  0  0
  -23.6873   26.7612  -35.7730 C   0  0  0  0  0  0  0  0  0  0  0  0
  -23.2384   27.4615  -34.8074 O   0  0  0  0  0  0  0  0  0  0  0  0
  -23.3225   25.4343  -35.9403 C   0  0  0  0  0  0  0  0  0  0  0  0
  -23.7962   24.7008  -36.9565 N   0  0  0  0  0  0  0  0  0  0  0  0
  -24.6507   25.2785  -37.8352 C   0  0  0  0  0  0  0  0  0  0  0  0
  -23.6636   22.7372  -41.1752 C   0  0  0  0  0  0  0  0  0  0  0  0
  -22.5008   22.2619  -41.8166 C   0  0  0  0  0  0  0  0  0  0  0  0
  -22.5640   22.2711  -43.1712 F   0  0  0  0  0  0  0  0  0  0  0  0
  -15.7252   20.5928  -42.6749 N   0  0  0  0  0  0  0  0  0  0  0  0
  -15.7001   19.4254  -41.8664 C   0  0  0  0  0  0  0  0  0  0  0  0
  -15.4929   19.5750  -40.5135 C   0  0  0  0  0  0  0  0  0  0  0  0
  -15.4623   18.4635  -39.6969 C   0  0  0  0  0  0  0  0  0  0  0  0
  -15.6371   17.1804  -40.2090 C   0  0  0  0  0  0  0  0  0  0  0  0
  -15.8434   17.0369  -41.5594 C   0  0  0  0  0  0  0  0  0  0  0  0
  -15.8736   18.1687  -42.3836 C   0  0  0  0  0  0  0  0  0  0  0  0
  -14.8674   20.9333  -43.6208 N   0  0  0  0  0  0  0  0  0  0  0  0
  1  2  1  0
  2  3  1  0
  2  4  1  0
  2  5  1  0
  5  6  1  0
  6  7  2  0
  7  8  1  0
  8  9  1  0
  9 10  2  0
  9 11  1  0
 11 12  1  0
 12 13  2  0
 13 14  1  0
 14 15  2  0
 15 16  1  0
 16 17  1  0
 17 18  2  0
 18 19  1  0
 19 20  2  0
 20 21  1  0
 21 22  1  0
 22 23  1  0
 23 24  2  0
 23 25  1  0
 25 26  2  0
 26 27  1  0
 15 28  1  0
 28 29  2  0
 29 30  1  0
  7 31  1  0
 31 32  1  0
 32 33  2  0
 33 34  1  0
 34 35  2  0
 35 36  1  0
 36 37  2  0
 31 38  1  0
 38  5  2  0
 29 12  1  0
 37 32  1  0
 27 17  1  0
 27 21  2  0
M  END
$$$$
