
     RDKit          3D

 23 26  0  0  0  0  0  0  0  0999 V2000
   -3.1204   11.0088  -13.9728 C   0  0  0  0  0  0  0  0  0  0  0  0
   -4.5355   11.3416  -14.0939 N   0  0  0  0  0  0  0  0  0  0  0  0
   -5.0248   12.3129  -14.8889 C   0  0  0  0  0  0  0  0  0  0  0  0
   -6.3736   12.2712  -14.7069 N   0  0  0  0  0  0  0  0  0  0  0  0
   -6.6695   11.3083  -13.8319 N   0  0  0  0  0  0  0  0  0  0  0  0
   -5.5415   10.7017  -13.4240 C   0  0  0  0  0  0  0  0  0  0  0  0
   -5.3020    9.3539  -12.2830 S   0  0  0  0  0  0  0  0  0  0  0  0
   -6.0488    7.8144  -13.0536 C   0  0  0  0  0  0  0  0  0  0  0  0
   -7.4726    7.9318  -12.8197 C   0  0  0  0  0  0  0  0  0  0  0  0
   -7.7726    8.9047  -12.0094 O   0  0  0  0  0  0  0  0  0  0  0  0
   -8.5139    7.1581  -13.3475 N   0  0  0  0  0  0  0  0  0  0  0  0
   -8.3231    6.1394  -14.2773 C   0  0  0  0  0  0  0  0  0  0  0  0
   -7.1728    5.6825  -14.8294 C   0  0  0  0  0  0  0  0  0  0  0  0
   -7.2482    4.6274  -15.7540 C   0  0  0  0  0  0  0  0  0  0  0  0
   -8.4742    4.0921  -16.0688 C   0  0  0  0  0  0  0  0  0  0  0  0
   -9.6475    4.5470  -15.5146 C   0  0  0  0  0  0  0  0  0  0  0  0
   -9.5388    5.5914  -14.6053 C   0  0  0  0  0  0  0  0  0  0  0  0
  -10.4793    6.2795  -13.8748 C   0  0  0  0  0  0  0  0  0  0  0  0
  -11.8418    6.1312  -13.8514 C   0  0  0  0  0  0  0  0  0  0  0  0
  -12.5901    6.9506  -13.0511 C   0  0  0  0  0  0  0  0  0  0  0  0
  -11.9828    7.9012  -12.2878 C   0  0  0  0  0  0  0  0  0  0  0  0
  -10.6128    8.0646  -12.2980 C   0  0  0  0  0  0  0  0  0  0  0  0
   -9.8358    7.2462  -13.0989 C   0  0  0  0  0  0  0  0  0  0  0  0
  1  2  1  0
  2  3  1  0
  3  4  2  0
  4  5  1  0
  5  6  2  0
  6  7  1  0
  7  8  1  0
  8  9  1  0
  9 10  2  0
  9 11  1  0
 11 12  1  0
 12 13  2  0
 13 14  1  0
 14 15  2  0
 15 16  1  0
 16 17  2  0
 17 18  1  0
 18 19  2  0
 19 20  1  0
 20 21  2  0
 21 22  1  0
 22 23  2  0
  6  2  1  0
 23 11  1  0
 17 12  1  0
 23 18  1  0
M  END
$$$$
