
     RDKit          3D

 27 29  0  0  0  0  0  0  0  0999 V2000
    0.6459   12.8938  -10.8755 C   0  0  0  0  0  0  0  0  0  0  0  0
    0.3396   13.9380  -11.8220 N   0  0  0  0  0  4  0  0  0  0  0  0
    1.2095   15.0746  -11.5763 C   0  0  0  0  0  0  0  0  0  0  0  0
    1.1511   16.0004  -12.7994 C   0  0  0  0  0  0  0  0  0  0  0  0
   -0.2530   15.8056  -13.3883 C   0  0  0  0  0  0  0  0  0  0  0  0
   -1.1590   15.7714  -12.1419 C   0  0  0  0  0  0  0  0  0  0  0  0
   -1.0186   14.3800  -11.5670 C   0  0  0  0  0  0  0  0  0  0  0  0
   -0.3489   14.4836  -14.0315 C   0  0  0  0  0  0  0  0  0  0  0  0
   -0.0718   14.3889  -15.3774 O   0  0  0  0  0  0  0  0  0  0  0  0
   -0.9277   13.9136  -16.3554 C   0  0  0  0  0  0  0  0  0  0  0  0
   -2.0537   13.5532  -15.8671 O   0  0  0  0  0  0  0  0  0  0  0  0
   -0.6314   13.8152  -17.7826 C   0  0  0  0  0  0  0  0  0  0  0  0
   -1.7860   13.3069  -18.4233 O   0  0  0  0  0  0  0  0  0  0  0  0
    0.4506   12.8797  -18.1260 C   0  0  0  0  0  0  0  0  0  0  0  0
    0.7504   12.5749  -19.4545 C   0  0  0  0  0  0  0  0  0  0  0  0
    1.7358   11.7184  -19.8330 C   0  0  0  0  0  0  0  0  0  0  0  0
    2.4956   11.1045  -18.8493 C   0  0  0  0  0  0  0  0  0  0  0  0
    2.2210   11.3874  -17.5319 C   0  0  0  0  0  0  0  0  0  0  0  0
    1.2041   12.2709  -17.1507 C   0  0  0  0  0  0  0  0  0  0  0  0
   -0.3883   15.1839  -18.3288 C   0  0  0  0  0  0  0  0  0  0  0  0
    0.6755   15.9514  -17.9012 C   0  0  0  0  0  0  0  0  0  0  0  0
    0.8853   17.2315  -18.4258 C   0  0  0  0  0  0  0  0  0  0  0  0
    0.0321   17.7407  -19.3757 C   0  0  0  0  0  0  0  0  0  0  0  0
   -1.0375   16.9899  -19.8169 C   0  0  0  0  0  0  0  0  0  0  0  0
   -1.2112   15.7488  -19.2848 C   0  0  0  0  0  0  0  0  0  0  0  0
    0.4979   13.5089  -13.1970 C   0  0  0  0  0  0  0  0  0  0  0  0
    0.2372   14.3372  -15.5050 Br  0  0  0  0  0 15  0  0  0  0  0  0
  1  2  1  0
  2  3  1  0
  3  4  1  0
  4  5  1  0
  5  6  1  0
  6  7  1  0
  5  8  1  0
  8  9  1  0
  9 10  1  0
 10 11  2  0
 10 12  1  0
 12 13  1  0
 12 14  1  0
 14 15  2  0
 15 16  1  0
 16 17  2  0
 17 18  1  0
 18 19  2  0
 12 20  1  0
 20 21  2  0
 21 22  1  0
 22 23  2  0
 23 24  1  0
 24 25  2  0
  8 26  1  0
  7  2  1  0
 19 14  1  0
 25 20  1  0
 26  2  1  0
M  CHG  2   2   1  27  -1
M  END
$$$$
