
     RDKit          3D

 19 20  0  0  0  0  0  0  0  0999 V2000
  -20.1783    2.0808  -34.7970 C   0  0  0  0  0  0  0  0  0  0  0  0
  -19.7259    0.7775  -34.4899 O   0  0  0  0  0  0  0  0  0  0  0  0
  -18.6010    0.5620  -33.7046 C   0  0  0  0  0  0  0  0  0  0  0  0
  -17.7674    1.6164  -33.4077 C   0  0  0  0  0  0  0  0  0  0  0  0
  -16.6336    1.4672  -32.6323 C   0  0  0  0  0  0  0  0  0  0  0  0
  -16.2997    0.2072  -32.1174 C   0  0  0  0  0  0  0  0  0  0  0  0
  -15.0858    0.1008  -31.2857 C   0  0  0  0  0  0  0  0  0  0  0  0
  -13.9194   -0.4410  -32.0028 C   0  0  0  0  0  0  0  0  0  0  0  0
  -12.9820    0.4281  -32.5636 C   0  0  0  0  0  0  0  0  0  0  0  0
  -11.9146   -0.0104  -33.2314 N   0  0  0  0  0  0  0  0  0  0  0  0
  -11.6855   -1.3057  -33.3992 C   0  0  0  0  0  0  0  0  0  0  0  0
  -10.5499   -1.7520  -34.1123 N   0  0  0  0  0  0  0  0  0  0  0  0
  -12.5861   -2.1793  -32.8610 N   0  0  0  0  0  0  0  0  0  0  0  0
  -13.6754   -1.7752  -32.1801 C   0  0  0  0  0  0  0  0  0  0  0  0
  -14.5469   -2.7700  -31.6436 N   0  0  0  0  0  0  0  0  0  0  0  0
  -17.1243   -0.8244  -32.4129 C   0  0  0  0  0  0  0  0  0  0  0  0
  -18.2756   -0.6754  -33.2004 C   0  0  0  0  0  0  0  0  0  0  0  0
  -19.1217   -1.7240  -33.5071 O   0  0  0  0  0  0  0  0  0  0  0  0
  -19.7731   -2.5642  -32.6081 C   0  0  0  0  0  0  0  0  0  0  0  0
  1  2  1  0
  2  3  1  0
  3  4  2  0
  4  5  1  0
  5  6  2  0
  6  7  1  0
  7  8  1  0
  8  9  2  0
  9 10  1  0
 10 11  2  0
 11 12  1  0
 11 13  1  0
 13 14  2  0
 14 15  1  0
  6 16  1  0
 16 17  2  0
 17 18  1  0
 18 19  1  0
 17  3  1  0
 14  8  1  0
M  END
$$$$
