
     RDKit          3D

 19 21  0  0  0  0  0  0  0  0999 V2000
  -16.4131   13.7532  -27.4990 O   0  0  0  0  0  0  0  0  0  0  0  0
  -15.7467   13.9751  -28.5478 C   0  0  0  0  0  0  0  0  0  0  0  0
  -16.3774   14.6739  -29.6512 C   0  0  0  0  0  0  0  0  0  0  0  0
  -17.5634   15.0658  -29.5989 O   0  0  0  0  0  0  0  0  0  0  0  0
  -15.5955   14.9257  -30.8622 C   0  0  0  0  0  0  0  0  0  0  0  0
  -16.2033   15.5876  -31.8988 C   0  0  0  0  0  0  0  0  0  0  0  0
  -15.4750   15.8295  -33.0435 C   0  0  0  0  0  0  0  0  0  0  0  0
  -16.0169   16.5025  -34.1589 N   0  0  0  0  0  4  0  0  0  0  0  0
  -15.9800   17.7355  -34.1928 O   0  0  0  0  0  0  0  0  0  0  0  0
  -16.5721   15.8096  -35.1829 O   0  0  0  0  0  1  0  0  0  0  0  0
  -14.1734   15.4053  -33.1145 C   0  0  0  0  0  0  0  0  0  0  0  0
  -13.5879   14.7393  -32.0505 C   0  0  0  0  0  0  0  0  0  0  0  0
  -14.2943   14.4885  -30.9028 C   0  0  0  0  0  0  0  0  0  0  0  0
  -13.6565   13.7857  -29.7961 C   0  0  0  0  0  0  0  0  0  0  0  0
  -12.3576   13.3647  -29.8721 C   0  0  0  0  0  0  0  0  0  0  0  0
  -11.8107   12.6998  -28.7794 C   0  0  0  0  0  0  0  0  0  0  0  0
  -12.5030   12.4460  -27.6360 C   0  0  0  0  0  0  0  0  0  0  0  0
  -13.8143   12.8680  -27.5524 C   0  0  0  0  0  0  0  0  0  0  0  0
  -14.3730   13.5334  -28.6365 C   0  0  0  0  0  0  0  0  0  0  0  0
  1  2  2  0
  2  3  1  0
  3  4  2  0
  3  5  1  0
  5  6  2  0
  6  7  1  0
  7  8  1  0
  8  9  2  0
  8 10  1  0
  7 11  2  0
 11 12  1  0
 12 13  2  0
 13 14  1  0
 14 15  2  0
 15 16  1  0
 16 17  2  0
 17 18  1  0
 18 19  2  0
 19  2  1  0
 13  5  1  0
 19 14  1  0
M  CHG  2   8   1  10  -1
M  END
$$$$
