
     RDKit          3D

 33 35  0  0  0  0  0  0  0  0999 V2000
  -14.6428   15.9544  -35.5478 C   0  0  0  0  0  0  0  0  0  0  0  0
  -14.9828   16.5473  -36.6670 C   0  0  0  0  0  0  0  0  0  0  0  0
  -13.9198   17.0773  -37.5281 C   0  0  0  0  0  0  0  0  0  0  0  0
  -12.5712   16.9884  -37.1915 C   0  0  0  0  0  0  0  0  0  0  0  0
  -11.5630   17.4865  -38.0046 C   0  0  0  0  0  0  0  0  0  0  0  0
  -11.8636   18.0985  -39.1964 C   0  0  0  0  0  0  0  0  0  0  0  0
  -13.1802   18.1907  -39.5347 C   0  0  0  0  0  0  0  0  0  0  0  0
  -13.4959   18.8092  -40.7406 O   0  0  0  0  0  0  0  0  0  0  0  0
  -14.1851   17.6944  -38.7245 C   0  0  0  0  0  0  0  0  0  0  0  0
  -15.5749   17.8292  -39.1441 C   0  0  0  0  0  0  0  0  0  0  0  0
  -15.7940   18.4040  -40.2675 O   0  0  0  0  0  0  0  0  0  0  0  0
  -16.6338   17.3319  -38.3180 C   0  0  0  0  0  0  0  0  0  0  0  0
  -17.8897   17.4997  -38.6684 C   0  0  0  0  0  0  0  0  0  0  0  0
  -18.2726   18.1470  -39.8299 O   0  0  0  0  0  0  0  0  0  0  0  0
  -18.9451   16.9614  -37.7517 C   0  0  2  0  0  0  0  0  0  0  0  0
  -18.9584   15.5712  -37.7822 O   0  0  0  0  0  0  0  0  0  0  0  0
  -20.2782   17.3921  -38.2652 C   0  0  0  0  0  0  0  0  0  0  0  0
  -21.1345   16.6146  -38.7468 O   0  0  0  0  0  0  0  0  0  0  0  0
  -20.5704   18.8197  -38.1863 C   0  0  0  0  0  0  0  0  0  0  0  0
  -21.4036   19.4664  -39.1847 C   0  0  0  0  0  0  0  0  0  0  0  0
  -21.9475   18.7270  -40.2497 N   0  0  0  0  0  0  0  0  0  0  0  0
  -21.6241   20.6920  -39.0734 O   0  0  0  0  0  0  0  0  0  0  0  0
  -20.0442   19.4617  -37.1628 C   0  0  0  0  0  0  0  0  0  0  0  0
  -20.3036   20.8212  -37.0633 O   0  0  0  0  0  0  0  0  0  0  0  0
  -19.1991   18.8633  -36.1022 C   0  0  1  0  0  0  0  0  0  0  0  0
  -19.9727   18.9858  -34.8866 N   0  0  0  0  0  0  0  0  0  0  0  0
  -19.3721   18.5133  -33.6994 C   0  0  0  0  0  0  0  0  0  0  0  0
  -21.3529   18.6570  -35.0520 C   0  0  0  0  0  0  0  0  0  0  0  0
  -18.6667   17.5104  -36.3842 C   0  0  2  0  0  0  0  0  0  0  0  0
  -17.1955   17.3962  -36.0238 C   0  0  1  0  0  0  0  0  0  0  0  0
  -16.9905   16.9506  -34.7543 O   0  0  0  0  0  0  0  0  0  0  0  0
  -16.4107   16.6290  -37.0330 C   0  0  2  0  0  0  0  0  0  0  0  0
  -16.8926   17.8547  -37.3779 Cl  0  0  0  0  0  0  0  0  0  0  0  0
  1  2  2  0
  2  3  1  0
  3  4  2  0
  4  5  1  0
  5  6  2  0
  6  7  1  0
  7  8  1  0
  7  9  2  0
  9 10  1  0
 10 11  2  0
 10 12  1  0
 12 13  2  0
 13 14  1  0
 13 15  1  0
 15 16  1  1
 15 17  1  0
 17 18  2  0
 17 19  1  0
 19 20  1  0
 20 21  1  0
 20 22  2  0
 19 23  2  0
 23 24  1  0
 23 25  1  0
 25 26  1  1
 26 27  1  0
 26 28  1  0
 29 25  1  6
 29 30  1  0
 30 31  1  1
 30 32  1  0
 32  2  1  1
  9  3  1  0
 32 12  1  0
 29 15  1  0
M  END
$$$$
