
     RDKit          3D

 22 23  0  0  0  0  0  0  0  0999 V2000
  -30.7757   24.6176  -33.1190 C   0  0  0  0  0  0  0  0  0  0  0  0
  -29.6889   23.7254  -33.2054 O   0  0  0  0  0  0  0  0  0  0  0  0
  -28.6179   24.0579  -34.0211 C   0  0  0  0  0  0  0  0  0  0  0  0
  -28.8672   24.3272  -35.3506 C   0  0  0  0  0  0  0  0  0  0  0  0
  -27.8234   24.6610  -36.1884 C   0  0  0  0  0  0  0  0  0  0  0  0
  -26.5409   24.7182  -35.6709 C   0  0  0  0  0  0  0  0  0  0  0  0
  -25.5377   25.0630  -36.5813 O   0  0  0  0  0  0  0  0  0  0  0  0
  -25.6366   24.8562  -37.9598 C   0  0  0  0  0  0  0  0  0  0  0  0
  -26.2841   24.4512  -34.3470 C   0  0  0  0  0  0  0  0  0  0  0  0
  -24.9367   24.5175  -33.8309 C   0  0  0  0  0  0  0  0  0  0  0  0
  -24.1204   23.4002  -33.8968 C   0  0  0  0  0  0  0  0  0  0  0  0
  -22.8471   23.5239  -33.3892 C   0  0  0  0  0  0  0  0  0  0  0  0
  -22.0635   22.5401  -33.4234 O   0  0  0  0  0  0  0  0  0  0  0  0
  -22.4346   24.6901  -32.8566 N   0  0  0  0  0  0  0  0  0  0  0  0
  -23.2765   25.7456  -32.8203 C   0  0  0  0  0  0  0  0  0  0  0  0
  -22.8015   27.1818  -32.1764 S   0  0  0  0  0  0  0  0  0  0  0  0
  -24.5344   25.6889  -33.3003 N   0  0  0  0  0  0  0  0  0  0  0  0
  -25.4005   26.8407  -33.2418 C   0  0  0  0  0  0  0  0  0  0  0  0
  -25.2752   27.5506  -34.5450 C   0  0  0  0  0  0  0  0  0  0  0  0
  -26.3438   28.3338  -35.0816 N   0  0  0  0  0  0  0  0  0  0  0  0
  -24.2286   27.4904  -35.2239 O   0  0  0  0  0  0  0  0  0  0  0  0
  -27.3321   24.1216  -33.5304 C   0  0  0  0  0  0  0  0  0  0  0  0
  1  2  1  0
  2  3  1  0
  3  4  2  0
  4  5  1  0
  5  6  2  0
  6  7  1  0
  7  8  1  0
  6  9  1  0
  9 10  1  0
 10 11  2  0
 11 12  1  0
 12 13  2  0
 12 14  1  0
 14 15  1  0
 15 16  2  0
 15 17  1  0
 17 18  1  0
 18 19  1  0
 19 20  1  0
 19 21  2  0
  9 22  2  0
 22  3  1  0
 17 10  1  0
M  END
$$$$
