
     RDKit          3D

 15 14  0  0  0  0  0  0  0  0999 V2000
  -22.2789   17.5230  -35.2792 C   0  0  0  0  0  0  0  0  0  0  0  0
  -21.2936   16.5038  -34.8426 N   0  0  0  0  0  4  0  0  0  0  0  0
  -21.9038   15.7921  -33.7722 C   0  0  0  0  0  0  0  0  0  0  0  0
  -21.0750   15.6444  -35.9765 C   0  0  0  0  0  0  0  0  0  0  0  0
  -20.0697   17.2369  -34.4891 C   0  0  0  0  0  0  0  0  0  0  0  0
  -18.9145   16.3132  -34.3704 C   0  0  0  0  0  0  0  0  0  0  0  0
  -17.9235   15.5209  -34.2906 C   0  0  0  0  0  0  0  0  0  0  0  0
  -16.8123   14.6017  -34.2070 C   0  0  0  0  0  0  0  0  0  0  0  0
  -15.9607   14.8601  -33.1173 N   0  0  0  0  0  0  0  0  0  0  0  0
  -16.2349   14.2588  -31.7564 C   0  0  0  0  0  0  0  0  0  0  0  0
  -14.8354   13.8140  -31.3475 C   0  0  0  0  0  0  0  0  0  0  0  0
  -14.0094   15.0549  -31.7405 C   0  0  0  0  0  0  0  0  0  0  0  0
  -14.7912   15.5802  -32.8456 C   0  0  0  0  0  0  0  0  0  0  0  0
  -14.4678   16.6254  -33.5445 O   0  0  0  0  0  0  0  0  0  0  0  0
  -18.5151   15.6735  -33.7242 I   0  0  0  0  0 15  0  0  0  0  0  0
  1  2  1  0
  2  3  1  0
  2  4  1  0
  2  5  1  0
  5  6  1  0
  6  7  3  0
  7  8  1  0
  8  9  1  0
  9 10  1  0
 10 11  1  0
 11 12  1  0
 12 13  1  0
 13 14  2  0
 13  9  1  0
M  CHG  2   2   1  15  -1
M  END
$$$$
