
     RDKit          3D

 50 54  0  0  0  0  0  0  0  0999 V2000
  -28.5834   25.0173  -36.8002 C   0  0  0  0  0  0  0  0  0  0  0  0
  -27.3745   24.1151  -36.6227 C   0  0  0  0  0  0  0  0  0  0  0  0
  -26.4955   24.1429  -37.8413 C   0  0  0  0  0  0  0  0  0  0  0  0
  -25.2432   23.3422  -37.7284 C   0  0  0  0  0  0  0  0  0  0  0  0
  -24.2826   23.3568  -38.5852 O   0  0  0  0  0  0  0  0  0  0  0  0
  -23.0695   23.7798  -38.6983 C   0  0  0  0  0  0  0  0  0  0  0  0
  -22.5462   24.0667  -40.0710 C   0  0  0  0  0  0  0  0  0  0  0  0
  -22.0052   22.9818  -40.7279 O   0  0  0  0  0  0  0  0  0  0  0  0
  -21.1096   22.0783  -40.1819 C   0  0  0  0  0  0  0  0  0  0  0  0
  -19.9429   22.5169  -39.6043 C   0  0  0  0  0  0  0  0  0  0  0  0
  -19.0567   21.5857  -39.0639 C   0  0  0  0  0  0  0  0  0  0  0  0
  -19.3372   20.2383  -39.1026 C   0  0  0  0  0  0  0  0  0  0  0  0
  -18.3545   19.3142  -38.5507 C   0  0  0  0  0  0  0  0  0  0  0  0
  -18.5693   18.6440  -37.3722 C   0  0  0  0  0  0  0  0  0  0  0  0
  -17.6292   17.7592  -36.8175 C   0  0  0  0  0  0  0  0  0  0  0  0
  -16.4413   17.5329  -37.4521 C   0  0  0  0  0  0  0  0  0  0  0  0
  -16.2133   18.2018  -38.6391 C   0  0  0  0  0  0  0  0  0  0  0  0
  -17.1462   19.0688  -39.1731 C   0  0  0  0  0  0  0  0  0  0  0  0
  -15.0997   18.2537  -39.5827 C   0  0  0  0  0  0  0  0  0  0  0  0
  -13.9215   17.6484  -39.7043 C   0  0  0  0  0  0  0  0  0  0  0  0
  -13.1996   18.0904  -40.8587 C   0  0  0  0  0  0  0  0  0  0  0  0
  -11.9939   17.7039  -41.0741 O   0  0  0  0  0  0  0  0  0  0  0  0
  -13.7750   18.9653  -41.8112 N   0  0  0  0  0  0  0  0  0  0  0  0
  -12.9884   19.3328  -42.9695 C   0  0  0  0  0  0  0  0  0  0  0  0
  -11.6696   18.9171  -43.0554 C   0  0  0  0  0  0  0  0  0  0  0  0
  -10.8978   19.2748  -44.1693 C   0  0  0  0  0  0  0  0  0  0  0  0
  -11.4446   20.0378  -45.1804 C   0  0  0  0  0  0  0  0  0  0  0  0
  -10.4398   20.4971  -46.5948 S   0  0  0  0  0  4  0  0  0  0  0  0
   -9.0176   20.5273  -46.0007 O   0  0  0  0  0  0  0  0  0  0  0  0
  -10.3973   18.9037  -47.5383 C   0  0  0  0  0  0  0  0  0  0  0  0
  -11.6856   18.6534  -48.1880 C   0  0  0  0  0  0  0  0  0  0  0  0
  -12.6666   19.6264  -48.3457 C   0  0  0  0  0  0  0  0  0  0  0  0
  -13.6908   19.0190  -48.9659 N   0  0  0  0  0  0  0  0  0  0  0  0
  -13.3833   17.7432  -49.1900 C   0  0  0  0  0  0  0  0  0  0  0  0
  -12.1279   17.4885  -48.7106 N   0  0  0  0  0  0  0  0  0  0  0  0
  -11.4928   16.2012  -48.8180 C   0  0  0  0  0  0  0  0  0  0  0  0
  -12.4572   15.0971  -49.1643 C   0  0  0  0  0  0  0  0  0  0  0  0
  -11.8092   13.7456  -49.2872 C   0  0  0  0  0  0  0  0  0  0  0  0
  -12.7534   20.4245  -45.0510 C   0  0  0  0  0  0  0  0  0  0  0  0
  -13.5404   20.0933  -43.9737 C   0  0  0  0  0  0  0  0  0  0  0  0
  -13.2823   16.6175  -38.8844 C   0  0  0  0  0  0  0  0  0  0  0  0
  -14.3660   15.6173  -38.3954 C   0  0  0  0  0  0  0  0  0  0  0  0
  -14.5884   15.7694  -36.9418 C   0  0  0  0  0  0  0  0  0  0  0  0
  -15.7528   16.6117  -36.6026 N   0  0  0  0  0  0  0  0  0  0  0  0
  -16.2159   16.5571  -35.2850 C   0  0  0  0  0  0  0  0  0  0  0  0
  -16.9222   15.3883  -34.7290 C   0  0  0  0  0  0  0  0  0  0  0  0
  -17.8164   14.5943  -35.6507 C   0  0  0  0  0  0  0  0  0  0  0  0
  -16.1329   14.4075  -33.8974 C   0  0  0  0  0  0  0  0  0  0  0  0
  -20.4993   19.7989  -39.6764 C   0  0  0  0  0  0  0  0  0  0  0  0
  -21.3677   20.7310  -40.2080 C   0  0  0  0  0  0  0  0  0  0  0  0
  1  2  1  0
  2  3  1  0
  3  4  1  0
  4  5  1  0
  5  6  1  0
  6  7  1  0
  7  8  1  0
  8  9  1  0
  9 10  2  0
 10 11  1  0
 11 12  2  0
 12 13  1  0
 13 14  2  0
 14 15  1  0
 15 16  2  0
 16 17  1  0
 17 18  2  0
 17 19  1  0
 19 20  2  0
 20 21  1  0
 21 22  2  0
 21 23  1  0
 23 24  1  0
 24 25  2  0
 25 26  1  0
 26 27  2  0
 27 28  1  0
 28 29  2  0
 28 30  1  6
 30 31  1  0
 31 32  2  0
 32 33  1  0
 33 34  2  0
 34 35  1  0
 35 36  1  0
 36 37  1  0
 37 38  1  0
 27 39  1  0
 39 40  2  0
 20 41  1  0
 41 42  1  0
 42 43  1  0
 43 44  1  0
 44 45  1  0
 45 46  1  0
 46 47  1  0
 46 48  1  0
 12 49  1  0
 49 50  2  0
 50  9  1  0
 18 13  1  0
 40 24  1  0
 44 16  1  0
 35 31  1  0
M  END
$$$$
