
     RDKit          3D

 27 29  0  0  0  0  0  0  0  0999 V2000
  -32.4111   15.6200  -25.5820 C   0  0  0  0  0  0  0  0  0  0  0  0
  -31.9222   16.7286  -26.4739 C   0  0  0  0  0  0  0  0  0  0  0  0
  -30.5123   16.7016  -26.7184 N   0  0  0  0  0  0  0  0  0  0  0  0
  -29.8820   17.8733  -27.2138 C   0  0  0  0  0  0  0  0  0  0  0  0
  -30.5973   18.8110  -27.6143 O   0  0  0  0  0  0  0  0  0  0  0  0
  -28.4308   18.0201  -27.2714 C   0  0  0  0  0  0  0  0  0  0  0  0
  -27.5502   17.3331  -26.5328 N   0  0  0  0  0  0  0  0  0  0  0  0
  -26.3720   17.7288  -26.8552 O   0  0  0  0  0  0  0  0  0  0  0  0
  -26.3997   18.6574  -27.7824 C   0  0  0  0  0  0  0  0  0  0  0  0
  -25.2011   19.2761  -28.3259 C   0  0  0  0  0  0  0  0  0  0  0  0
  -24.7856   19.1895  -29.6186 C   0  0  0  0  0  0  0  0  0  0  0  0
  -23.6343   19.8014  -30.0772 C   0  0  0  0  0  0  0  0  0  0  0  0
  -23.1337   19.6677  -31.7428 Cl  0  0  0  0  0  0  0  0  0  0  0  0
  -22.8565   20.5366  -29.2074 C   0  0  0  0  0  0  0  0  0  0  0  0
  -21.6996   21.1493  -29.6756 O   0  0  0  0  0  0  0  0  0  0  0  0
  -23.2725   20.6286  -27.8940 C   0  0  0  0  0  0  0  0  0  0  0  0
  -24.4224   20.0164  -27.4397 C   0  0  0  0  0  0  0  0  0  0  0  0
  -24.8016   20.1375  -26.1066 O   0  0  0  0  0  0  0  0  0  0  0  0
  -27.7253   18.8681  -28.0736 C   0  0  0  0  0  0  0  0  0  0  0  0
  -28.2209   19.8263  -29.0589 C   0  0  0  0  0  0  0  0  0  0  0  0
  -28.6042   19.4094  -30.3060 C   0  0  0  0  0  0  0  0  0  0  0  0
  -29.0813   20.3043  -31.2633 C   0  0  0  0  0  0  0  0  0  0  0  0
  -29.1764   21.6434  -30.9656 C   0  0  0  0  0  0  0  0  0  0  0  0
  -29.6343   22.5813  -31.8514 O   0  0  0  0  0  0  0  0  0  0  0  0
  -29.1389   22.8281  -33.1336 C   0  0  0  0  0  0  0  0  0  0  0  0
  -28.7933   22.0779  -29.7117 C   0  0  0  0  0  0  0  0  0  0  0  0
  -28.3285   21.1853  -28.7876 C   0  0  0  0  0  0  0  0  0  0  0  0
  1  2  1  0
  2  3  1  0
  3  4  1  0
  4  5  2  0
  4  6  1  0
  6  7  2  0
  7  8  1  0
  8  9  1  0
  9 10  1  0
 10 11  2  0
 11 12  1  0
 12 13  1  0
 12 14  2  0
 14 15  1  0
 14 16  1  0
 16 17  2  0
 17 18  1  0
  9 19  2  0
 19 20  1  0
 20 21  2  0
 21 22  1  0
 22 23  2  0
 23 24  1  0
 24 25  1  0
 23 26  1  0
 26 27  2  0
 19  6  1  0
 27 20  1  0
 17 10  1  0
M  END
$$$$
