
     RDKit          3D

 18 17  0  0  0  0  0  0  0  0999 V2000
  -20.2906   18.1083  -36.6698 C   0  0  0  0  0  0  0  0  0  0  0  0
  -19.7179   16.8808  -36.2227 C   0  0  0  0  0  0  0  0  0  0  0  0
  -19.1488   15.7113  -35.8047 C   0  0  0  0  0  0  0  0  0  0  0  0
  -19.1300   15.3958  -34.4490 N   0  0  0  0  0  0  0  0  0  0  0  0
  -20.6027   15.1322  -34.0507 C   0  0  0  0  0  0  0  0  0  0  0  0
  -18.6014   16.2764  -33.4807 C   0  0  0  0  0  0  0  0  0  0  0  0
  -17.1464   16.6081  -33.9252 C   0  0  0  0  0  0  0  0  0  0  0  0
  -16.5846   17.4080  -32.8047 C   0  0  0  0  0  0  0  0  0  0  0  0
  -16.4932   16.3725  -31.6354 O   0  0  0  0  0  0  0  0  0  0  0  0
  -15.3953   15.5156  -31.7952 C   0  0  0  0  0  0  0  0  0  0  0  0
  -14.3719   15.1735  -32.4318 C   0  0  0  0  0  0  0  0  0  0  0  0
  -13.4992   14.0922  -32.2502 C   0  0  0  0  0  0  0  0  0  0  0  0
  -13.8032   13.2195  -31.1542 C   0  0  0  0  0  0  0  0  0  0  0  0
  -12.8249   11.8792  -30.7811 Cl  0  0  0  0  0  0  0  0  0  0  0  0
  -14.9453   13.5228  -30.3340 C   0  0  0  0  0  0  0  0  0  0  0  0
  -15.6363   14.5988  -30.6409 C   0  0  0  0  0  0  0  0  0  0  0  0
  -16.8929   15.2184  -29.4515 Cl  0  0  0  0  0  0  0  0  0  0  0  0
  -16.7936   15.3881  -32.8247 Cl  0  0  0  0  0  0  0  0  0  0  0  0
  1  2  3  0
  2  3  1  0
  3  4  1  0
  4  5  1  0
  4  6  1  0
  6  7  1  0
  7  8  1  0
  8  9  1  0
  9 10  1  0
 10 11  2  0
 11 12  1  0
 12 13  2  0
 13 14  1  0
 13 15  1  0
 15 16  2  0
 16 17  1  0
 16 10  1  0
M  END
$$$$
