
     RDKit          3D

 23 24  0  0  0  0  0  0  0  0999 V2000
  -38.1433   10.2323  -25.5854 C   0  0  0  0  0  0  0  0  0  0  0  0
  -38.8990   10.6912  -24.3406 C   0  0  0  0  0  0  0  0  0  0  0  0
  -38.0807   11.6151  -23.6480 N   0  0  0  0  0  0  0  0  0  0  0  0
  -38.3031   11.7981  -22.2647 C   0  0  0  0  0  0  0  0  0  0  0  0
  -38.7256   13.2252  -22.0838 C   0  0  0  0  0  0  0  0  0  0  0  0
  -37.8747   13.9165  -23.1475 C   0  0  0  0  0  0  0  0  0  0  0  0
  -37.8469   12.8752  -24.2696 C   0  0  1  0  0  0  0  0  0  0  0  0
  -36.4454   12.8456  -24.8085 C   0  0  0  0  0  0  0  0  0  0  0  0
  -36.1102   14.0429  -25.5541 N   0  0  0  0  0  0  0  0  0  0  0  0
  -35.4084   15.0911  -24.9324 C   0  0  0  0  0  0  0  0  0  0  0  0
  -36.1751   16.0505  -24.5189 O   0  0  0  0  0  0  0  0  0  0  0  0
  -33.9799   15.1901  -24.7224 C   0  0  0  0  0  0  0  0  0  0  0  0
  -33.2601   16.2091  -25.3622 C   0  0  0  0  0  0  0  0  0  0  0  0
  -31.9156   16.3836  -25.2268 C   0  0  0  0  0  0  0  0  0  0  0  0
  -31.1717   17.7073  -26.0988 S   0  0  0  0  0  6  0  0  0  0  0  0
  -31.6456   17.7045  -27.7592 N   0  0  0  0  0  0  0  0  0  0  0  0
  -29.6624   17.6349  -25.9992 O   0  0  0  0  0  0  0  0  0  0  0  0
  -31.5963   18.9901  -25.4601 O   0  0  0  0  0  0  0  0  0  0  0  0
  -31.2070   15.5223  -24.4218 C   0  0  0  0  0  0  0  0  0  0  0  0
  -31.8685   14.5139  -23.7784 C   0  0  0  0  0  0  0  0  0  0  0  0
  -33.2669   14.3474  -23.9308 C   0  0  0  0  0  0  0  0  0  0  0  0
  -33.8837   13.3081  -23.2554 O   0  0  0  0  0  0  0  0  0  0  0  0
  -33.2434   12.4277  -22.3863 C   0  0  0  0  0  0  0  0  0  0  0  0
  1  2  1  0
  2  3  1  0
  3  4  1  0
  4  5  1  0
  5  6  1  0
  6  7  1  0
  7  8  1  1
  8  9  1  0
  9 10  1  0
 10 11  2  0
 10 12  1  0
 12 13  2  0
 13 14  1  0
 14 15  1  0
 15 16  1  0
 15 17  2  0
 15 18  2  0
 14 19  2  0
 19 20  1  0
 20 21  2  0
 21 22  1  0
 22 23  1  0
  7  3  1  0
 21 12  1  0
M  END
$$$$
