
     RDKit          3D

 36 40  0  0  0  0  0  0  0  0999 V2000
  -21.8641   18.4935  -25.4751 C   0  0  0  0  0  0  0  0  0  0  0  0
  -22.7368   17.7446  -26.3053 O   0  0  0  0  0  0  0  0  0  0  0  0
  -24.0070   18.2820  -26.6015 C   0  0  0  0  0  0  0  0  0  0  0  0
  -24.3367   19.5235  -26.2267 N   0  0  0  0  0  0  0  0  0  0  0  0
  -25.5476   20.0671  -26.4975 C   0  0  0  0  0  0  0  0  0  0  0  0
  -26.5127   19.3609  -27.1807 C   0  0  0  0  0  0  0  0  0  0  0  0
  -27.7986   19.9602  -27.4767 C   0  0  0  0  0  0  0  0  0  0  0  0
  -27.8783   21.3449  -27.6795 C   0  0  0  0  0  0  0  0  0  0  0  0
  -29.0808   21.9402  -27.9661 C   0  0  0  0  0  0  0  0  0  0  0  0
  -30.2625   21.2407  -28.0720 C   0  0  0  0  0  0  0  0  0  0  0  0
  -31.4292   21.8570  -28.3667 N   0  0  0  0  0  0  0  0  0  0  0  0
  -32.5859   21.1908  -28.4844 C   0  0  0  0  0  0  0  0  0  0  0  0
  -32.5905   19.8344  -28.2991 C   0  0  0  0  0  0  0  0  0  0  0  0
  -31.3888   19.1757  -27.9914 C   0  0  0  0  0  0  0  0  0  0  0  0
  -31.3900   17.7450  -27.7552 C   0  0  0  0  0  0  0  0  0  0  0  0
  -30.9098   17.2309  -26.5719 C   0  0  0  0  0  0  0  0  0  0  0  0
  -30.8773   15.8462  -26.3558 C   0  0  0  0  0  0  0  0  0  0  0  0
  -31.3180   15.0130  -27.3102 N   0  0  0  0  0  0  0  0  0  0  0  0
  -31.7734   15.5186  -28.4346 N   0  0  0  0  0  0  0  0  0  0  0  0
  -31.8257   16.8455  -28.6919 C   0  0  0  0  0  0  0  0  0  0  0  0
  -30.2025   19.8654  -27.8731 C   0  0  0  0  0  0  0  0  0  0  0  0
  -28.9872   19.2695  -27.5849 C   0  0  0  0  0  0  0  0  0  0  0  0
  -26.1679   18.0915  -27.5599 C   0  0  0  0  0  0  0  0  0  0  0  0
  -24.9438   17.5169  -27.2966 C   0  0  0  0  0  0  0  0  0  0  0  0
  -24.5195   16.2374  -27.7045 N   0  0  0  0  0  0  0  0  0  0  0  0
  -25.3561   14.7717  -27.6214 S   0  0  0  0  0  6  0  0  0  0  0  0
  -24.4993   13.5959  -28.0725 O   0  0  0  0  0  0  0  0  0  0  0  0
  -26.5181   14.7874  -28.6054 O   0  0  0  0  0  0  0  0  0  0  0  0
  -25.9555   14.4099  -26.0488 C   0  0  0  0  0  0  0  0  0  0  0  0
  -27.2965   14.4014  -25.7750 C   0  0  0  0  0  0  0  0  0  0  0  0
  -27.7561   14.0892  -24.5064 C   0  0  0  0  0  0  0  0  0  0  0  0
  -26.8559   13.7850  -23.5157 C   0  0  0  0  0  0  0  0  0  0  0  0
  -27.3317   13.4786  -22.2664 F   0  0  0  0  0  0  0  0  0  0  0  0
  -25.5176   13.7880  -23.7708 C   0  0  0  0  0  0  0  0  0  0  0  0
  -25.0579   14.0934  -25.0122 C   0  0  0  0  0  0  0  0  0  0  0  0
  -23.7323   14.1096  -25.3148 F   0  0  0  0  0  0  0  0  0  0  0  0
  1  2  1  0
  2  3  1  0
  3  4  2  0
  4  5  1  0
  5  6  2  0
  6  7  1  0
  7  8  2  0
  8  9  1  0
  9 10  2  0
 10 11  1  0
 11 12  2  0
 12 13  1  0
 13 14  2  0
 14 15  1  0
 15 16  2  0
 16 17  1  0
 17 18  2  0
 18 19  1  0
 19 20  2  0
 14 21  1  0
 21 22  2  0
  6 23  1  0
 23 24  2  0
 24 25  1  0
 25 26  1  0
 26 27  2  0
 26 28  2  0
 26 29  1  0
 29 30  2  0
 30 31  1  0
 31 32  2  0
 32 33  1  0
 32 34  1  0
 34 35  2  0
 35 36  1  0
 24  3  1  0
 35 29  1  0
 22  7  1  0
 21 10  1  0
 20 15  1  0
M  END
$$$$
