
     RDKit          3D

 28 30  0  0  0  0  0  0  0  0999 V2000
  -13.3182   17.5310  -33.8251 C   0  0  0  0  0  0  0  0  0  0  0  0
  -14.2989   16.8590  -32.9737 C   0  0  0  0  0  0  0  0  0  0  0  0
  -15.4394   16.2322  -33.3925 C   0  0  0  0  0  0  0  0  0  0  0  0
  -16.0627   15.7329  -32.2691 C   0  0  0  0  0  0  0  0  0  0  0  0
  -17.2687   15.0054  -32.3007 N   0  0  0  0  0  0  0  0  0  0  0  0
  -18.8342   15.6337  -32.1034 S   0  0  0  0  0  6  0  0  0  0  0  0
  -19.8188   14.4796  -32.2235 O   0  0  0  0  0  0  0  0  0  0  0  0
  -19.0543   16.1662  -30.7007 O   0  0  0  0  0  0  0  0  0  0  0  0
  -19.1896   16.8662  -33.2863 C   0  0  0  0  0  0  0  0  0  0  0  0
  -19.2698   16.5027  -34.6404 C   0  0  0  0  0  0  0  0  0  0  0  0
  -19.5686   17.4092  -35.6183 C   0  0  0  0  0  0  0  0  0  0  0  0
  -19.8127   18.7606  -35.3368 C   0  0  0  0  0  0  0  0  0  0  0  0
  -20.1350   19.6451  -36.3954 N   0  0  0  0  0  0  0  0  0  0  0  0
  -19.9204   19.3681  -37.7812 C   0  0  0  0  0  0  0  0  0  0  0  0
  -19.9917   18.1595  -38.0855 O   0  0  0  0  0  0  0  0  0  0  0  0
  -19.6370   20.4630  -38.7276 C   0  0  0  0  0  0  0  0  0  0  0  0
  -20.6992   20.7262  -39.7094 C   0  0  0  0  0  0  0  0  0  0  0  0
  -21.9294   21.2333  -39.4008 C   0  0  0  0  0  0  0  0  0  0  0  0
  -22.8888   21.4389  -40.3973 C   0  0  0  0  0  0  0  0  0  0  0  0
  -22.5936   21.1266  -41.7328 C   0  0  0  0  0  0  0  0  0  0  0  0
  -23.8043   21.3839  -42.9602 Cl  0  0  0  0  0  0  0  0  0  0  0  0
  -21.3612   20.6182  -42.0591 C   0  0  0  0  0  0  0  0  0  0  0  0
  -21.0173   20.2441  -43.7188 Cl  0  0  0  0  0  0  0  0  0  0  0  0
  -20.4472   20.4301  -41.0512 C   0  0  0  0  0  0  0  0  0  0  0  0
  -19.7350   19.1173  -34.0136 C   0  0  0  0  0  0  0  0  0  0  0  0
  -19.4305   18.1876  -33.0170 C   0  0  0  0  0  0  0  0  0  0  0  0
  -15.2952   16.0711  -31.2443 N   0  0  0  0  0  0  0  0  0  0  0  0
  -14.2493   16.7401  -31.6521 O   0  0  0  0  0  0  0  0  0  0  0  0
  1  2  1  0
  2  3  2  0
  3  4  1  0
  4  5  1  0
  5  6  1  0
  6  7  2  0
  6  8  2  0
  6  9  1  0
  9 10  2  0
 10 11  1  0
 11 12  2  0
 12 13  1  0
 13 14  1  0
 14 15  2  0
 14 16  1  0
 16 17  1  0
 17 18  2  0
 18 19  1  0
 19 20  2  0
 20 21  1  0
 20 22  1  0
 22 23  1  0
 22 24  2  0
 12 25  1  0
 25 26  2  0
  4 27  2  0
 27 28  1  0
 28  2  1  0
 26  9  1  0
 24 17  1  0
M  END
$$$$
