
     RDKit          3D

 27 30  0  0  0  0  0  0  0  0999 V2000
  -22.2100    0.0338  -31.7294 C   0  0  0  0  0  0  0  0  0  0  0  0
  -21.1233    0.4739  -32.5484 O   0  0  0  0  0  0  0  0  0  0  0  0
  -20.8100   -0.1680  -33.7384 C   0  0  0  0  0  0  0  0  0  0  0  0
  -21.5311   -1.1503  -34.0516 O   0  0  0  0  0  0  0  0  0  0  0  0
  -19.6885    0.2624  -34.6131 C   0  0  2  0  0  0  0  0  0  0  0  0
  -19.6045   -0.6246  -35.8192 C   0  0  1  0  0  0  0  0  0  0  0  0
  -20.8128   -0.5648  -36.5021 O   0  0  0  0  0  0  0  0  0  0  0  0
  -18.5596    0.0071  -36.7488 C   0  0  0  0  0  0  0  0  0  0  0  0
  -17.2485   -0.1084  -36.0161 C   0  0  0  0  0  0  0  0  0  0  0  0
  -17.2316    0.6116  -34.7025 C   0  0  2  0  0  0  0  0  0  0  0  0
  -15.9161    0.3532  -34.0468 C   0  0  0  0  0  0  0  0  0  0  0  0
  -15.9112   -0.8717  -33.2846 N   0  0  0  0  0  0  0  0  0  0  0  0
  -14.5906   -1.1563  -32.7914 C   0  0  0  0  0  0  0  0  0  0  0  0
  -14.5471   -2.3926  -31.9591 C   0  0  0  0  0  0  0  0  0  0  0  0
  -15.6368   -2.4636  -30.9642 C   0  0  0  0  0  0  0  0  0  0  0  0
  -16.7365   -1.6501  -31.1332 C   0  0  0  0  0  0  0  0  0  0  0  0
  -17.5566   -1.9166  -30.1022 N   0  0  0  0  0  0  0  0  0  0  0  0
  -17.0143   -2.8557  -29.3061 C   0  0  0  0  0  0  0  0  0  0  0  0
  -17.4645   -3.4505  -28.1456 C   0  0  0  0  0  0  0  0  0  0  0  0
  -16.6609   -4.4089  -27.5398 C   0  0  0  0  0  0  0  0  0  0  0  0
  -15.4325   -4.7751  -28.0699 C   0  0  0  0  0  0  0  0  0  0  0  0
  -15.0032   -4.1679  -29.2294 C   0  0  0  0  0  0  0  0  0  0  0  0
  -15.7993   -3.2212  -29.8259 C   0  0  0  0  0  0  0  0  0  0  0  0
  -16.8951   -0.7150  -32.2420 C   0  0  2  0  0  0  0  0  0  0  0  0
  -18.2462   -0.8796  -32.9530 C   0  0  0  0  0  0  0  0  0  0  0  0
  -18.4138    0.3267  -33.8312 C   0  0  2  0  0  0  0  0  0  0  0  0
  -17.2664   -1.5120  -32.1518 Cl  0  0  0  0  0  0  0  0  0  0  0  0
  1  2  1  0
  2  3  1  0
  3  4  2  0
  5  3  1  1
  5  6  1  0
  6  7  1  6
  6  8  1  0
  8  9  1  0
 10  9  1  6
 10 11  1  0
 11 12  1  0
 12 13  1  0
 13 14  1  0
 14 15  1  0
 15 16  2  0
 16 17  1  0
 17 18  1  0
 18 19  2  0
 19 20  1  0
 20 21  2  0
 21 22  1  0
 22 23  2  0
 16 24  1  0
 24 25  1  6
 26 25  1  6
 26  5  1  0
 26 10  1  0
 24 12  1  0
 23 15  1  0
 23 18  1  0
M  END
$$$$
