
     RDKit          3D

 31 34  0  0  0  0  0  0  0  0999 V2000
  -15.6169   47.4942  -18.7290 C   0  0  0  0  0  0  0  0  0  0  0  0
  -15.2073   46.2467  -18.2303 O   0  0  0  0  0  0  0  0  0  0  0  0
  -15.5395   45.0140  -18.7257 C   0  0  0  0  0  0  0  0  0  0  0  0
  -16.0750   44.8443  -19.9815 C   0  0  0  0  0  0  0  0  0  0  0  0
  -16.4162   43.6166  -20.4968 C   0  0  0  0  0  0  0  0  0  0  0  0
  -16.2063   42.4950  -19.7008 C   0  0  0  0  0  0  0  0  0  0  0  0
  -16.5705   41.1986  -20.2392 C   0  0  0  0  0  0  0  0  0  0  0  0
  -16.4427   40.1443  -19.5694 O   0  0  0  0  0  0  0  0  0  0  0  0
  -17.0768   41.0872  -21.5323 O   0  0  0  0  0  0  0  0  0  0  0  0
  -18.2474   40.3057  -21.7835 C   0  0  0  0  0  0  0  0  0  0  0  0
  -17.8931   38.8741  -21.6333 C   0  0  0  0  0  0  0  0  0  0  0  0
  -17.6101   37.7350  -21.5340 C   0  0  0  0  0  0  0  0  0  0  0  0
  -17.2502   36.2807  -21.4334 C   0  0  0  0  0  0  0  0  0  0  0  0
  -18.4499   35.3013  -22.3342 S   0  0  0  0  0  0  0  0  0  0  0  0
  -19.5037   36.3240  -23.3194 C   0  0  0  0  0  0  0  0  0  0  0  0
  -20.7663   36.0753  -23.7472 N   0  0  0  0  0  0  0  0  0  0  0  0
  -21.1605   37.1128  -24.4507 N   0  0  0  0  0  0  0  0  0  0  0  0
  -20.1455   38.0377  -24.4764 C   0  0  0  0  0  0  0  0  0  0  0  0
  -20.2562   39.3051  -25.1692 C   0  0  0  0  0  0  0  0  0  0  0  0
  -19.3685   40.3284  -24.8320 C   0  0  0  0  0  0  0  0  0  0  0  0
  -19.4243   41.5441  -25.4741 C   0  0  0  0  0  0  0  0  0  0  0  0
  -20.3470   41.7800  -26.4547 C   0  0  0  0  0  0  0  0  0  0  0  0
  -21.2563   40.7924  -26.8297 C   0  0  0  0  0  0  0  0  0  0  0  0
  -22.1648   41.0553  -27.8272 C   0  0  0  0  0  0  0  0  0  0  0  0
  -23.0374   40.0629  -28.1841 C   0  0  0  0  0  0  0  0  0  0  0  0
  -23.0085   38.8185  -27.5551 C   0  0  0  0  0  0  0  0  0  0  0  0
  -22.0588   38.6148  -26.5464 C   0  0  0  0  0  0  0  0  0  0  0  0
  -21.1720   39.5750  -26.1604 C   0  0  0  0  0  0  0  0  0  0  0  0
  -19.1999   37.5039  -23.7881 O   0  0  0  0  0  0  0  0  0  0  0  0
  -15.6733   42.6253  -18.4434 C   0  0  0  0  0  0  0  0  0  0  0  0
  -15.3411   43.8931  -17.9605 C   0  0  0  0  0  0  0  0  0  0  0  0
  1  2  1  0
  2  3  1  0
  3  4  2  0
  4  5  1  0
  5  6  2  0
  6  7  1  0
  7  8  2  0
  7  9  1  0
  9 10  1  0
 10 11  1  0
 11 12  3  0
 12 13  1  0
 13 14  1  0
 14 15  1  0
 15 16  2  0
 16 17  1  0
 17 18  2  0
 18 19  1  0
 19 20  2  0
 20 21  1  0
 21 22  2  0
 22 23  1  0
 23 24  2  0
 24 25  1  0
 25 26  2  0
 26 27  1  0
 27 28  2  0
 18 29  1  0
  6 30  1  0
 30 31  2  0
 31  3  1  0
 29 15  1  0
 28 19  1  0
 28 23  1  0
M  END
$$$$
