
     RDKit          3D

 31 35  0  0  0  0  0  0  0  0999 V2000
  -21.5500   42.5886  -27.3474 C   0  0  0  0  0  0  0  0  0  0  0  0
  -21.8838   41.1891  -26.9492 C   0  0  0  0  0  0  0  0  0  0  0  0
  -22.7951   40.5767  -27.5799 O   0  0  0  0  0  0  0  0  0  0  0  0
  -21.1842   40.5773  -25.8861 N   0  0  0  0  0  0  0  0  0  0  0  0
  -21.6000   39.2767  -25.4266 C   0  0  0  0  0  0  0  0  0  0  0  0
  -20.3217   38.4289  -25.3388 C   0  0  0  0  0  0  0  0  0  0  0  0
  -19.5135   39.0092  -24.2506 C   0  0  0  0  0  0  0  0  0  0  0  0
  -19.4126   40.3902  -24.2439 C   0  0  0  0  0  0  0  0  0  0  0  0
  -18.6235   40.7123  -23.1601 C   0  0  0  0  0  0  0  0  0  0  0  0
  -18.2923   42.0492  -22.8217 N   0  0  0  0  0  0  0  0  0  0  0  0
  -17.3015   42.4310  -21.8863 C   0  0  0  0  0  0  0  0  0  0  0  0
  -16.7608   41.5605  -20.9916 C   0  0  0  0  0  0  0  0  0  0  0  0
  -15.7867   41.9604  -20.0794 C   0  0  0  0  0  0  0  0  0  0  0  0
  -15.3300   43.2541  -20.0451 C   0  0  0  0  0  0  0  0  0  0  0  0
  -14.3102   43.6075  -19.0673 C   0  0  0  0  0  0  0  0  0  0  0  0
  -14.0540   44.8929  -18.6178 C   0  0  0  0  0  0  0  0  0  0  0  0
  -13.0531   44.8028  -17.7324 N   0  0  0  0  0  0  0  0  0  0  0  0
  -12.6432   43.5646  -17.5743 N   0  0  0  0  0  0  0  0  0  0  0  0
  -11.5748   43.0922  -16.6929 C   0  0  0  0  0  0  0  0  0  0  0  0
  -13.4094   42.8116  -18.3921 C   0  0  0  0  0  0  0  0  0  0  0  0
  -15.8635   44.1388  -20.9370 C   0  0  0  0  0  0  0  0  0  0  0  0
  -16.8233   43.7371  -21.8330 C   0  0  0  0  0  0  0  0  0  0  0  0
  -17.3289   44.6385  -22.7011 F   0  0  0  0  0  0  0  0  0  0  0  0
  -18.3040   39.5608  -22.5954 N   0  0  0  0  0  0  0  0  0  0  0  0
  -18.8251   38.5272  -23.2302 N   0  0  0  0  0  0  0  0  0  0  0  0
  -18.6432   37.1779  -22.8431 C   0  0  1  0  0  0  0  0  0  0  0  0
  -17.1358   36.8863  -22.9207 C   0  0  0  0  0  0  0  0  0  0  0  0
  -17.0321   35.7193  -22.0009 C   0  0  0  0  0  0  0  0  0  0  0  0
  -18.0843   35.7340  -21.1397 O   0  0  0  0  0  0  0  0  0  0  0  0
  -18.9223   36.8089  -21.4439 C   0  0  0  0  0  0  0  0  0  0  0  0
  -20.0794   41.2306  -25.2695 C   0  0  0  0  0  0  0  0  0  0  0  0
  1  2  1  0
  2  3  2  0
  2  4  1  0
  4  5  1  0
  5  6  1  0
  6  7  1  0
  7  8  2  0
  8  9  1  0
  9 10  1  0
 10 11  1  0
 11 12  2  0
 12 13  1  0
 13 14  2  0
 14 15  1  0
 15 16  1  0
 16 17  2  0
 17 18  1  0
 18 19  1  0
 18 20  1  0
 14 21  1  0
 21 22  2  0
 22 23  1  0
  9 24  2  0
 24 25  1  0
 26 25  1  1
 26 27  1  0
 27 28  1  0
 28 29  1  0
 29 30  1  0
  8 31  1  0
 31  4  1  0
 25  7  1  0
 30 26  1  0
 22 11  1  0
 20 15  2  0
M  END
$$$$
