
     RDKit          3D

 17 19  0  0  0  0  0  0  0  0999 V2000
    7.2616    7.0394  -27.6003 Cl  0  0  0  0  0  0  0  0  0  0  0  0
    6.7126    7.4444  -29.2295 C   0  0  0  0  0  0  0  0  0  0  0  0
    5.7311    6.7414  -29.8582 C   0  0  0  0  0  0  0  0  0  0  0  0
    5.3547    7.1136  -31.1297 C   0  0  0  0  0  0  0  0  0  0  0  0
    5.9601    8.1957  -31.7811 C   0  0  0  0  0  0  0  0  0  0  0  0
    6.9396    8.8971  -31.1534 C   0  0  0  0  0  0  0  0  0  0  0  0
    7.5905    9.9689  -31.7517 N   0  0  0  0  0  0  0  0  0  0  0  0
    7.1001   10.7788  -32.8049 C   0  0  0  0  0  0  0  0  0  0  0  0
    7.3761   12.0742  -32.8277 N   0  0  0  0  0  0  0  0  0  0  0  0
    6.9882   12.9506  -33.7593 C   0  0  0  0  0  0  0  0  0  0  0  0
    6.2464   12.4668  -34.7705 N   0  0  0  0  0  0  0  0  0  0  0  0
    5.9302   11.1423  -34.8023 C   0  0  0  0  0  0  0  0  0  0  0  0
    4.9937   10.1638  -35.9491 S   0  0  0  0  0  0  0  0  0  0  0  0
    5.1802    8.6123  -35.0971 C   0  0  0  0  0  0  0  0  0  0  0  0
    5.9483    8.9597  -33.9940 C   0  0  0  0  0  0  0  0  0  0  0  0
    6.3206   10.2282  -33.8525 C   0  0  0  0  0  0  0  0  0  0  0  0
    7.3036    8.5075  -29.8767 C   0  0  0  0  0  0  0  0  0  0  0  0
  1  2  1  0
  2  3  2  0
  3  4  1  0
  4  5  2  0
  5  6  1  0
  6  7  1  0
  7  8  1  0
  8  9  2  0
  9 10  1  0
 10 11  2  0
 11 12  1  0
 12 13  1  0
 13 14  1  0
 14 15  2  0
 15 16  1  0
  6 17  2  0
 17  2  1  0
 16  8  1  0
 16 12  2  0
M  END
$$$$
