
     RDKit          3D

 35 38  0  0  0  0  0  0  0  0999 V2000
  -10.9963   -5.0552  -25.5887 C   0  0  0  0  0  0  0  0  0  0  0  0
  -11.3154   -4.6595  -24.3718 C   0  0  0  0  0  0  0  0  0  0  0  0
  -11.0928   -3.3203  -23.8775 C   0  0  0  0  0  0  0  0  0  0  0  0
   -9.9001   -2.8727  -23.8011 O   0  0  0  0  0  0  0  0  0  0  0  0
  -12.1259   -2.4360  -23.4575 N   0  0  0  0  0  0  0  0  0  0  0  0
  -11.8876   -1.4506  -22.4547 C   0  0  0  0  0  0  0  0  0  0  0  0
  -11.2128   -0.3038  -22.7613 C   0  0  0  0  0  0  0  0  0  0  0  0
  -10.9831    0.6499  -21.7869 C   0  0  0  0  0  0  0  0  0  0  0  0
  -11.4460    0.4285  -20.4944 C   0  0  0  0  0  0  0  0  0  0  0  0
  -12.1305   -0.7215  -20.1581 C   0  0  0  0  0  0  0  0  0  0  0  0
  -12.6282   -0.9594  -18.7680 C   0  0  0  0  0  0  0  0  0  0  0  0
  -12.3453   -1.6613  -21.1612 C   0  0  0  0  0  0  0  0  0  0  0  0
  -13.0445   -2.8524  -20.8496 N   0  0  0  0  0  0  0  0  0  0  0  0
  -14.4469   -2.8856  -21.0356 C   0  0  0  0  0  0  0  0  0  0  0  0
  -15.2281   -3.8108  -20.4222 N   0  0  0  0  0  0  0  0  0  0  0  0
  -16.5600   -3.8626  -20.5829 C   0  0  0  0  0  0  0  0  0  0  0  0
  -17.1948   -2.9535  -21.3981 C   0  0  0  0  0  0  0  0  0  0  0  0
  -18.5562   -2.9801  -21.5834 C   0  0  0  0  0  0  0  0  0  0  0  0
  -19.1489   -2.0472  -22.4111 C   0  0  0  0  0  0  0  0  0  0  0  0
  -20.5815   -2.0676  -22.6121 C   0  0  0  0  0  0  0  0  0  0  0  0
  -21.1699   -3.1246  -23.2727 C   0  0  0  0  0  0  0  0  0  0  0  0
  -20.2053   -4.4767  -23.8904 Cl  0  0  0  0  0  0  0  0  0  0  0  0
  -22.5371   -3.1066  -23.4436 C   0  0  0  0  0  0  0  0  0  0  0  0
  -23.1432   -4.1596  -24.1043 O   0  0  0  0  0  0  0  0  0  0  0  0
  -24.4561   -4.5805  -23.8479 C   0  0  0  0  0  0  0  0  0  0  0  0
  -23.3178   -2.0530  -22.9662 C   0  0  0  0  0  0  0  0  0  0  0  0
  -22.6916   -1.0109  -22.3089 C   0  0  0  0  0  0  0  0  0  0  0  0
  -23.4233    0.0726  -21.8084 O   0  0  0  0  0  0  0  0  0  0  0  0
  -24.8422   -0.0008  -21.7969 C   0  0  0  0  0  0  0  0  0  0  0  0
  -21.3247   -1.0117  -22.1284 C   0  0  0  0  0  0  0  0  0  0  0  0
  -20.5548    0.3414  -21.2807 Cl  0  0  0  0  0  0  0  0  0  0  0  0
  -18.3772   -1.0956  -23.0469 C   0  0  0  0  0  0  0  0  0  0  0  0
  -17.0125   -1.0839  -22.8494 C   0  0  0  0  0  0  0  0  0  0  0  0
  -16.3914   -2.0150  -22.0188 C   0  0  0  0  0  0  0  0  0  0  0  0
  -15.0612   -1.9985  -21.8304 N   0  0  0  0  0  0  0  0  0  0  0  0
  1  2  2  0
  2  3  1  0
  3  4  2  0
  3  5  1  0
  5  6  1  0
  6  7  2  0
  7  8  1  0
  8  9  2  0
  9 10  1  0
 10 11  1  0
 10 12  2  0
 12 13  1  0
 13 14  1  0
 14 15  2  0
 15 16  1  0
 16 17  2  0
 17 18  1  0
 18 19  2  0
 19 20  1  0
 20 21  2  0
 21 22  1  0
 21 23  1  0
 23 24  1  0
 24 25  1  0
 23 26  2  0
 26 27  1  0
 27 28  1  0
 28 29  1  0
 27 30  2  0
 30 31  1  0
 19 32  1  0
 32 33  2  0
 33 34  1  0
 34 35  2  0
 12  6  1  0
 35 14  1  0
 34 17  1  0
 30 20  1  0
M  END
$$$$
