
     RDKit          3D

 30 34  0  0  0  0  0  0  0  0999 V2000
  -19.8310   17.6104  -35.1504 C   0  0  0  0  0  0  0  0  0  0  0  0
  -20.8011   16.4947  -35.0656 C   0  0  0  0  0  0  0  0  0  0  0  0
  -22.0068   16.5504  -35.7449 C   0  0  0  0  0  0  0  0  0  0  0  0
  -22.9079   15.5082  -35.6631 C   0  0  0  0  0  0  0  0  0  0  0  0
  -22.5564   14.4250  -34.8846 C   0  0  0  0  0  0  0  0  0  0  0  0
  -21.3515   14.3684  -34.2053 C   0  0  0  0  0  0  0  0  0  0  0  0
  -20.4492   15.4117  -34.2871 C   0  0  0  0  0  0  0  0  0  0  0  0
  -19.2108   15.3640  -33.5945 N   0  0  0  0  0  0  0  0  0  0  0  0
  -19.0902   15.2298  -32.1577 C   0  0  0  0  0  0  0  0  0  0  0  0
  -17.9316   14.2707  -31.8925 C   0  0  0  0  0  0  0  0  0  0  0  0
  -16.7169   14.9369  -32.3338 N   0  0  0  0  0  0  0  0  0  0  0  0
  -15.5140   14.8070  -31.6259 C   0  0  0  0  0  0  0  0  0  0  0  0
  -14.3446   14.9258  -32.2985 N   0  0  0  0  0  0  0  0  0  0  0  0
  -13.1589   14.8112  -31.6753 C   0  0  0  0  0  0  0  0  0  0  0  0
  -13.0938   14.5734  -30.3550 N   0  0  0  0  0  0  0  0  0  0  0  0
  -14.2101   14.4433  -29.6193 C   0  0  0  0  0  0  0  0  0  0  0  0
  -15.4284   14.5641  -30.2774 C   0  0  0  0  0  0  0  0  0  0  0  0
  -16.3894   14.3936  -29.3192 C   0  0  0  0  0  0  0  0  0  0  0  0
  -15.7629   14.1810  -28.1452 N   0  0  0  0  0  0  0  0  0  0  0  0
  -14.4555   14.2128  -28.3364 N   0  0  0  0  0  0  0  0  0  0  0  0
  -13.4803   14.0238  -27.2971 C   0  0  0  0  0  0  0  0  0  0  0  0
  -12.8655   12.6600  -27.3366 C   0  0  0  0  0  0  0  0  0  0  0  0
  -11.5543   12.4817  -27.7291 C   0  0  0  0  0  0  0  0  0  0  0  0
  -10.9633   11.2357  -27.7745 C   0  0  0  0  0  0  0  0  0  0  0  0
  -11.6744   10.1067  -27.4232 C   0  0  0  0  0  0  0  0  0  0  0  0
  -10.9428    8.5088  -27.4731 Cl  0  0  0  0  0  0  0  0  0  0  0  0
  -12.9854   10.2877  -27.0311 C   0  0  0  0  0  0  0  0  0  0  0  0
  -13.5783   11.5325  -26.9850 C   0  0  0  0  0  0  0  0  0  0  0  0
  -16.7852   15.7409  -33.5291 C   0  0  0  0  0  0  0  0  0  0  0  0
  -17.9890   15.4544  -34.3653 C   0  0  0  0  0  0  0  0  0  0  0  0
  1  2  1  0
  2  3  2  0
  3  4  1  0
  4  5  2  0
  5  6  1  0
  6  7  2  0
  7  8  1  0
  8  9  1  0
  9 10  1  0
 10 11  1  0
 11 12  1  0
 12 13  2  0
 13 14  1  0
 14 15  2  0
 15 16  1  0
 16 17  2  0
 17 18  1  0
 18 19  2  0
 19 20  1  0
 20 21  1  0
 21 22  1  0
 22 23  2  0
 23 24  1  0
 24 25  2  0
 25 26  1  0
 25 27  1  0
 27 28  2  0
 11 29  1  0
 29 30  1  0
  7  2  1  0
 30  8  1  0
 17 12  1  0
 28 22  1  0
 20 16  1  0
M  END
$$$$
