
     RDKit          3D

 35 38  0  0  0  0  0  0  0  0999 V2000
  -18.2539   48.6193  -21.6047 C   0  0  0  0  0  0  0  0  0  0  0  0
  -19.2032   47.4872  -21.3061 C   0  0  0  0  0  0  0  0  0  0  0  0
  -19.8129   47.6141  -19.9503 C   0  0  0  0  0  0  0  0  0  0  0  0
  -20.1166   48.7855  -19.3294 N   0  0  0  0  0  0  0  0  0  0  0  0
  -20.6531   48.5419  -18.1189 C   0  0  0  0  0  0  0  0  0  0  0  0
  -21.1361   49.3039  -17.0773 C   0  0  0  0  0  0  0  0  0  0  0  0
  -21.1192   50.7858  -17.1874 C   0  0  0  0  0  0  0  0  0  0  0  0
  -21.6224   48.7297  -15.9630 N   0  0  0  0  0  0  0  0  0  0  0  0
  -21.6646   47.3886  -15.8030 C   0  0  0  0  0  0  0  0  0  0  0  0
  -22.2171   46.8297  -14.5415 C   0  0  0  0  0  0  0  0  0  0  0  0
  -21.1865   46.6133  -16.8332 C   0  0  0  0  0  0  0  0  0  0  0  0
  -20.6750   47.1464  -18.0017 C   0  0  0  0  0  0  0  0  0  0  0  0
  -20.1611   46.6152  -19.1237 N   0  0  0  0  0  0  0  0  0  0  0  0
  -19.9948   45.2414  -19.4280 C   0  0  0  0  0  0  0  0  0  0  0  0
  -18.7523   44.6541  -19.3766 C   0  0  0  0  0  0  0  0  0  0  0  0
  -18.6083   43.3133  -19.6764 C   0  0  0  0  0  0  0  0  0  0  0  0
  -19.6697   42.5077  -20.0343 C   0  0  0  0  0  0  0  0  0  0  0  0
  -19.4687   41.0626  -20.3504 C   0  0  0  0  0  0  0  0  0  0  0  0
  -18.2813   40.8671  -21.2648 C   0  0  0  0  0  0  0  0  0  0  0  0
  -17.9733   39.4614  -21.4084 N   0  0  0  0  0  0  0  0  0  0  0  0
  -16.6806   39.0247  -21.7280 C   0  0  0  0  0  0  0  0  0  0  0  0
  -15.7961   39.7528  -22.2471 O   0  0  0  0  0  0  0  0  0  0  0  0
  -16.2992   37.6686  -21.4632 N   0  0  0  0  0  0  0  0  0  0  0  0
  -17.4210   36.3703  -21.6638 S   0  0  0  0  0  6  0  0  0  0  0  0
  -18.6049   36.5226  -20.7516 O   0  0  0  0  0  0  0  0  0  0  0  0
  -16.7550   35.0642  -21.2911 O   0  0  0  0  0  0  0  0  0  0  0  0
  -17.9834   36.3429  -23.3164 C   0  0  0  0  0  0  0  0  0  0  0  0
  -17.0816   36.2629  -24.3504 C   0  0  0  0  0  0  0  0  0  0  0  0
  -17.5265   36.2408  -25.6717 C   0  0  0  0  0  0  0  0  0  0  0  0
  -18.8691   36.2977  -25.9795 C   0  0  0  0  0  0  0  0  0  0  0  0
  -19.2957   36.2711  -27.4074 C   0  0  0  0  0  0  0  0  0  0  0  0
  -19.7699   36.3777  -24.9410 C   0  0  0  0  0  0  0  0  0  0  0  0
  -19.3243   36.3994  -23.6328 C   0  0  0  0  0  0  0  0  0  0  0  0
  -20.9160   43.1012  -20.0848 C   0  0  0  0  0  0  0  0  0  0  0  0
  -21.0701   44.4400  -19.7870 C   0  0  0  0  0  0  0  0  0  0  0  0
  1  2  1  0
  2  3  1  0
  3  4  2  0
  4  5  1  0
  5  6  2  0
  6  7  1  0
  6  8  1  0
  8  9  2  0
  9 10  1  0
  9 11  1  0
 11 12  2  0
 12 13  1  0
 13 14  1  0
 14 15  2  0
 15 16  1  0
 16 17  2  0
 17 18  1  0
 18 19  1  0
 19 20  1  0
 20 21  1  0
 21 22  2  0
 21 23  1  0
 23 24  1  0
 24 25  2  0
 24 26  2  0
 24 27  1  0
 27 28  2  0
 28 29  1  0
 29 30  2  0
 30 31  1  0
 30 32  1  0
 32 33  2  0
 17 34  1  0
 34 35  2  0
 13  3  1  0
 35 14  1  0
 12  5  1  0
 33 27  1  0
M  END
$$$$
