
     RDKit          3D

 23 25  0  0  0  0  0  0  0  0999 V2000
   11.2728    9.0385  -39.0829 C   0  0  0  0  0  0  0  0  0  0  0  0
   10.8249   10.1608  -38.3054 N   0  0  0  0  0  0  0  0  0  0  0  0
   10.3991    9.6887  -37.0218 C   0  0  0  0  0  0  0  0  0  0  0  0
    9.5570   10.7356  -36.2937 C   0  0  0  0  0  0  0  0  0  0  0  0
    8.3465   10.8938  -37.0761 N   0  0  0  0  0  0  0  0  0  0  0  0
    7.0865   11.0929  -36.4671 C   0  0  0  0  0  0  0  0  0  0  0  0
    5.9273   10.9147  -37.0753 C   0  0  0  0  0  0  0  0  0  0  0  0
    5.6709   10.4057  -38.7278 Cl  0  0  0  0  0  0  0  0  0  0  0  0
    4.8537   11.2142  -36.1368 C   0  0  0  0  0  0  0  0  0  0  0  0
    3.6134   11.1580  -36.3526 O   0  0  0  0  0  0  0  0  0  0  0  0
    5.4374   11.5997  -34.8744 N   0  0  0  0  0  0  0  0  0  0  0  0
    4.7311   11.9699  -33.6970 C   0  0  0  0  0  0  0  0  0  0  0  0
    5.0753   13.1134  -33.0077 C   0  0  0  0  0  0  0  0  0  0  0  0
    4.4379   13.5301  -31.8665 C   0  0  0  0  0  0  0  0  0  0  0  0
    3.3932   12.7809  -31.3623 C   0  0  0  0  0  0  0  0  0  0  0  0
    2.5460   13.2741  -29.9031 Cl  0  0  0  0  0  0  0  0  0  0  0  0
    3.0323   11.6257  -32.0432 C   0  0  0  0  0  0  0  0  0  0  0  0
    1.6968   10.6797  -31.3873 Cl  0  0  0  0  0  0  0  0  0  0  0  0
    3.6884   11.2262  -33.1899 C   0  0  0  0  0  0  0  0  0  0  0  0
    6.8512   11.5232  -35.0828 C   0  0  0  0  0  0  0  0  0  0  0  0
    7.6962   11.7923  -34.1895 O   0  0  0  0  0  0  0  0  0  0  0  0
    8.4684   10.8411  -38.5102 C   0  0  0  0  0  0  0  0  0  0  0  0
    9.8955   11.0088  -38.9742 C   0  0  0  0  0  0  0  0  0  0  0  0
  1  2  1  0
  2  3  1  0
  3  4  1  0
  4  5  1  0
  5  6  1  0
  6  7  2  0
  7  8  1  0
  7  9  1  0
  9 10  2  0
  9 11  1  0
 11 12  1  0
 12 13  2  0
 13 14  1  0
 14 15  2  0
 15 16  1  0
 15 17  1  0
 17 18  1  0
 17 19  2  0
 11 20  1  0
 20 21  2  0
  5 22  1  0
 22 23  1  0
 23  2  1  0
 20  6  1  0
 19 12  1  0
M  END
$$$$
