
     RDKit          3D

 25 28  0  0  0  0  0  0  0  0999 V2000
  -18.9132   33.6970  -20.7145 C   0  0  0  0  0  0  0  0  0  0  0  0
  -18.4337   34.9220  -21.3614 C   0  0  0  0  0  0  0  0  0  0  0  0
  -17.6818   34.9261  -22.5086 C   0  0  0  0  0  0  0  0  0  0  0  0
  -17.2257   36.0492  -23.1269 C   0  0  0  0  0  0  0  0  0  0  0  0
  -17.5195   37.3080  -22.5915 C   0  0  0  0  0  0  0  0  0  0  0  0
  -17.1691   38.4811  -23.0450 N   0  0  0  0  0  0  0  0  0  0  0  0
  -17.4091   39.5525  -22.6046 C   0  0  0  0  0  0  0  0  0  0  0  0
  -17.2001   40.9624  -22.8260 N   0  0  0  0  0  0  0  0  0  0  0  0
  -17.7573   41.8461  -21.8873 C   0  0  0  0  0  0  0  0  0  0  0  0
  -18.6013   41.4022  -21.0688 O   0  0  0  0  0  0  0  0  0  0  0  0
  -17.3436   43.3034  -21.8687 C   0  0  0  0  0  0  0  0  0  0  0  0
  -18.3989   44.0653  -22.6069 C   0  0  0  0  0  0  0  0  0  0  0  0
  -19.5127   44.4511  -21.7034 C   0  0  0  0  0  0  0  0  0  0  0  0
  -19.2344   45.6010  -20.8087 C   0  0  0  0  0  0  0  0  0  0  0  0
  -19.7517   46.2691  -19.9673 N   0  0  0  0  0  0  0  0  0  0  0  0
  -19.2544   47.2456  -19.2640 C   0  0  0  0  0  0  0  0  0  0  0  0
  -19.8876   48.0158  -18.2782 C   0  0  0  0  0  0  0  0  0  0  0  0
  -19.1874   49.0027  -17.6500 C   0  0  0  0  0  0  0  0  0  0  0  0
  -17.8840   49.3323  -17.8894 C   0  0  0  0  0  0  0  0  0  0  0  0
  -17.2447   48.5739  -18.8667 C   0  0  0  0  0  0  0  0  0  0  0  0
  -17.9411   47.5678  -19.5144 C   0  0  0  0  0  0  0  0  0  0  0  0
  -17.5180   46.4000  -20.7831 S   0  0  0  0  0  0  0  0  0  0  0  0
  -18.4211   39.0473  -21.0952 S   0  0  0  0  0  0  0  0  0  0  0  0
  -18.2726   37.3232  -21.4412 C   0  0  0  0  0  0  0  0  0  0  0  0
  -18.7372   36.1598  -20.8126 C   0  0  0  0  0  0  0  0  0  0  0  0
  1  2  1  0
  2  3  2  0
  3  4  1  0
  4  5  2  0
  5  6  1  0
  6  7  2  0
  7  8  1  0
  8  9  1  0
  9 10  2  0
  9 11  1  0
 11 12  1  0
 12 13  1  0
 13 14  1  0
 14 15  2  0
 15 16  1  0
 16 17  2  0
 17 18  1  0
 18 19  2  0
 19 20  1  0
 20 21  2  0
 21 22  1  0
  7 23  1  0
 23 24  1  0
 24 25  2  0
 25  2  1  0
 24  5  1  0
 22 14  1  0
 21 16  1  0
M  END
$$$$
