
     RDKit          3D

 40 44  0  0  0  0  0  0  0  0999 V2000
  -28.5942   18.1703  -27.4734 C   0  0  0  0  0  0  0  0  0  0  0  0
  -27.3186   18.7044  -27.8995 N   0  0  0  0  0  0  0  0  0  0  0  0
  -26.3578   18.6436  -26.8196 C   0  0  0  0  0  0  0  0  0  0  0  0
  -27.4746   20.0661  -28.3576 C   0  0  0  0  0  0  0  0  0  0  0  0
  -26.1805   20.4967  -28.9721 C   0  0  0  0  0  0  0  0  0  0  0  0
  -25.0195   20.2519  -28.4320 C   0  0  0  0  0  0  0  0  0  0  0  0
  -23.7474   20.2225  -29.1513 C   0  0  0  0  0  0  0  0  0  0  0  0
  -23.0615   19.1465  -29.2131 O   0  0  0  0  0  0  0  0  0  0  0  0
  -23.1977   21.3562  -29.8150 N   0  0  0  0  0  0  0  0  0  0  0  0
  -22.0302   21.1955  -30.6248 C   0  0  0  0  0  0  0  0  0  0  0  0
  -21.6452   19.9117  -30.9503 C   0  0  0  0  0  0  0  0  0  0  0  0
  -20.5300   19.6547  -31.7218 C   0  0  0  0  0  0  0  0  0  0  0  0
  -19.7395   20.7031  -32.2073 C   0  0  0  0  0  0  0  0  0  0  0  0
  -18.5571   20.4020  -33.0192 C   0  0  0  0  0  0  0  0  0  0  0  0
  -18.6240   20.7011  -34.2534 O   0  0  0  0  0  0  0  0  0  0  0  0
  -17.3894   19.8115  -32.5005 N   0  0  0  0  0  0  0  0  0  0  0  0
  -16.3573   19.3919  -33.4206 C   0  0  0  0  0  0  0  0  0  0  0  0
  -15.7605   18.0617  -33.0034 C   0  0  0  0  0  0  0  0  0  0  0  0
  -15.4348   18.1051  -31.5285 C   0  0  0  0  0  0  0  0  0  0  0  0
  -16.7257   18.2954  -30.7704 C   0  0  1  0  0  0  0  0  0  0  0  0
  -16.5522   18.0577  -29.3515 N   0  0  0  0  0  0  0  0  0  0  0  0
  -16.1198   16.7566  -28.9483 C   0  0  0  0  0  0  0  0  0  0  0  0
  -15.8550   16.4597  -27.6654 N   0  0  0  0  0  0  0  0  0  0  0  0
  -15.4549   15.2504  -27.2403 C   0  0  0  0  0  0  0  0  0  0  0  0
  -15.3174   14.2769  -28.1997 C   0  0  0  0  0  0  0  0  0  0  0  0
  -14.8037   12.6974  -27.7118 Cl  0  0  0  0  0  0  0  0  0  0  0  0
  -15.5771   14.5166  -29.5546 C   0  0  0  0  0  0  0  0  0  0  0  0
  -15.4455   13.4485  -30.5262 C   0  0  0  0  0  0  0  0  0  0  0  0
  -15.6459   12.1022  -30.3646 C   0  0  0  0  0  0  0  0  0  0  0  0
  -15.4199   11.4741  -31.5380 N   0  0  0  0  0  0  0  0  0  0  0  0
  -15.0717   12.3612  -32.4883 C   0  0  0  0  0  0  0  0  0  0  0  0
  -14.7475   12.2482  -33.8235 C   0  0  0  0  0  0  0  0  0  0  0  0
  -14.4322   13.3614  -34.5572 C   0  0  0  0  0  0  0  0  0  0  0  0
  -14.4437   14.5990  -33.9388 C   0  0  0  0  0  0  0  0  0  0  0  0
  -14.7660   14.7075  -32.6122 C   0  0  0  0  0  0  0  0  0  0  0  0
  -15.0857   13.6094  -31.8552 C   0  0  0  0  0  0  0  0  0  0  0  0
  -15.9706   15.7617  -29.8693 N   0  0  0  0  0  0  0  0  0  0  0  0
  -17.2726   19.6506  -31.0673 C   0  0  0  0  0  0  0  0  0  0  0  0
  -20.1399   21.9736  -31.8720 C   0  0  0  0  0  0  0  0  0  0  0  0
  -21.2623   22.2250  -31.0961 C   0  0  0  0  0  0  0  0  0  0  0  0
  1  2  1  0
  2  3  1  0
  2  4  1  0
  4  5  1  0
  5  6  2  0
  6  7  1  0
  7  8  2  0
  7  9  1  0
  9 10  1  0
 10 11  2  0
 11 12  1  0
 12 13  2  0
 13 14  1  0
 14 15  2  0
 14 16  1  0
 16 17  1  0
 17 18  1  0
 18 19  1  0
 19 20  1  0
 20 21  1  1
 21 22  1  0
 22 23  2  0
 23 24  1  0
 24 25  2  0
 25 26  1  0
 25 27  1  0
 27 28  1  0
 28 29  2  0
 29 30  1  0
 30 31  1  0
 31 32  2  0
 32 33  1  0
 33 34  2  0
 34 35  1  0
 35 36  2  0
 27 37  2  0
 20 38  1  0
 13 39  1  0
 39 40  2  0
 40 10  1  0
 38 16  1  0
 37 22  1  0
 36 28  1  0
 36 31  1  0
M  END
$$$$
