
     RDKit          3D

 26 29  0  0  0  0  0  0  0  0999 V2000
  -17.2815   34.8471  -22.4043 C   0  0  0  0  0  0  0  0  0  0  0  0
  -18.4267   35.5577  -22.8116 O   0  0  0  0  0  0  0  0  0  0  0  0
  -18.4898   36.9495  -22.7177 C   0  0  0  0  0  0  0  0  0  0  0  0
  -18.2200   37.5846  -21.5240 C   0  0  0  0  0  0  0  0  0  0  0  0
  -18.2604   38.9313  -21.3613 C   0  0  0  0  0  0  0  0  0  0  0  0
  -18.0571   39.5061  -20.1576 N   0  0  0  0  0  0  0  0  0  0  0  0
  -18.1736   40.8339  -20.0379 C   0  0  0  0  0  0  0  0  0  0  0  0
  -18.4731   41.6035  -21.0412 N   0  0  0  0  0  0  0  0  0  0  0  0
  -18.6963   41.0982  -22.3262 C   0  0  0  0  0  0  0  0  0  0  0  0
  -19.0153   42.0465  -23.3223 N   0  0  0  0  0  0  0  0  0  0  0  0
  -18.0076   42.2290  -24.2740 N   0  0  0  0  0  0  0  0  0  0  0  0
  -18.2707   43.2469  -25.0699 C   0  0  0  0  0  0  0  0  0  0  0  0
  -17.4409   43.7326  -26.1781 C   0  0  0  0  0  0  0  0  0  0  0  0
  -16.2749   43.1067  -26.5645 C   0  0  0  0  0  0  0  0  0  0  0  0
  -15.5181   43.5861  -27.6080 C   0  0  0  0  0  0  0  0  0  0  0  0
  -15.9098   44.7186  -28.3034 C   0  0  0  0  0  0  0  0  0  0  0  0
  -17.0835   45.3201  -27.8888 C   0  0  0  0  0  0  0  0  0  0  0  0
  -17.8085   44.8362  -26.8673 N   0  0  0  0  0  0  0  0  0  0  0  0
  -19.4175   43.7707  -24.7079 N   0  0  0  0  0  0  0  0  0  0  0  0
  -19.8361   43.0015  -23.6400 C   0  0  0  0  0  0  0  0  0  0  0  0
  -21.1401   43.1800  -23.1061 N   0  0  0  0  0  0  0  0  0  0  0  0
  -18.5895   39.7560  -22.4505 C   0  0  0  0  0  0  0  0  0  0  0  0
  -18.8657   39.1342  -23.6435 C   0  0  0  0  0  0  0  0  0  0  0  0
  -18.8187   37.7419  -23.7934 C   0  0  0  0  0  0  0  0  0  0  0  0
  -19.1031   37.1704  -25.0220 O   0  0  0  0  0  0  0  0  0  0  0  0
  -20.3089   37.4239  -25.7141 C   0  0  0  0  0  0  0  0  0  0  0  0
  1  2  1  0
  2  3  1  0
  3  4  2  0
  4  5  1  0
  5  6  2  0
  6  7  1  0
  7  8  2  0
  8  9  1  0
  9 10  1  0
 10 11  1  0
 11 12  2  0
 12 13  1  0
 13 14  2  0
 14 15  1  0
 15 16  2  0
 16 17  1  0
 17 18  2  0
 12 19  1  0
 19 20  2  0
 20 21  1  0
  9 22  2  0
 22 23  1  0
 23 24  2  0
 24 25  1  0
 25 26  1  0
 24  3  1  0
 22  5  1  0
 20 10  1  0
 18 13  1  0
M  END
$$$$
