
     RDKit          3D

 34 38  0  0  0  0  0  0  0  0999 V2000
  -34.1522   30.4697  -41.2642 C   0  0  0  0  0  0  0  0  0  0  0  0
  -32.7054   30.0340  -41.1808 C   0  0  0  0  0  0  0  0  0  0  0  0
  -31.8820   30.9386  -42.0541 C   0  0  0  0  0  0  0  0  0  0  0  0
  -32.6426   28.5911  -41.6074 C   0  0  0  0  0  0  0  0  0  0  0  0
  -32.8799   27.6055  -40.4955 C   0  0  0  0  0  0  0  0  0  0  0  0
  -31.7025   27.6641  -39.5574 C   0  0  1  0  0  0  0  0  0  0  0  0
  -30.6835   26.7657  -40.1753 C   0  0  0  0  0  0  0  0  0  0  0  0
  -31.0265   25.6172  -40.6173 O   0  0  0  0  0  0  0  0  0  0  0  0
  -29.3467   27.0635  -40.3235 O   0  0  0  0  0  0  0  0  0  0  0  0
  -31.1935   29.0828  -39.5531 C   0  0  1  0  0  0  0  0  0  0  0  0
  -32.1770   30.1525  -39.7417 C   0  0  0  0  0  0  0  0  0  0  0  0
  -30.2728   29.1673  -38.3996 C   0  0  0  0  0  0  0  0  0  0  0  0
  -29.0336   29.4630  -38.6727 C   0  0  0  0  0  0  0  0  0  0  0  0
  -27.9309   29.6030  -37.6884 C   0  0  0  0  0  0  0  0  0  0  0  0
  -28.6208   30.1081  -36.4237 C   0  0  2  0  0  0  0  0  0  0  0  0
  -27.5936   30.6152  -35.4342 C   0  0  1  0  0  0  0  0  0  0  0  0
  -26.6384   29.6075  -34.9388 C   0  0  0  0  0  0  0  0  0  0  0  0
  -26.7570   31.6380  -36.2231 C   0  0  0  0  0  0  0  0  0  0  0  0
  -26.0366   32.6115  -35.3331 C   0  0  0  0  0  0  0  0  0  0  0  0
  -26.8417   33.2190  -34.2494 C   0  0  2  0  0  0  0  0  0  0  0  0
  -25.9745   33.8666  -33.3695 O   0  0  0  0  0  0  0  0  0  0  0  0
  -27.6372   32.2149  -33.4602 C   0  0  0  0  0  0  0  0  0  0  0  0
  -26.8091   31.5152  -32.4202 C   0  0  0  0  0  0  0  0  0  0  0  0
  -28.6863   33.0376  -32.6913 C   0  0  0  0  0  0  0  0  0  0  0  0
  -28.3658   31.3441  -34.3894 C   0  0  2  0  0  0  0  0  0  0  0  0
  -29.2416   30.3085  -33.7244 C   0  0  0  0  0  0  0  0  0  0  0  0
  -30.3087   29.8366  -34.7063 C   0  0  0  0  0  0  0  0  0  0  0  0
  -29.6660   29.1854  -35.9446 C   0  0  2  0  0  0  0  0  0  0  0  0
  -29.1663   27.8614  -35.4196 C   0  0  0  0  0  0  0  0  0  0  0  0
  -30.6792   28.9278  -37.0132 C   0  0  1  0  0  0  0  0  0  0  0  0
  -31.9486   29.6632  -36.6085 C   0  0  0  0  0  0  0  0  0  0  0  0
  -31.1927   27.4785  -37.0427 C   0  0  0  0  0  0  0  0  0  0  0  0
  -31.9870   27.0973  -38.2084 C   0  0  1  0  0  0  0  0  0  0  0  0
  -33.3605   27.2156  -37.9829 O   0  0  0  0  0  0  0  0  0  0  0  0
  1  2  1  0
  2  3  1  0
  2  4  1  0
  4  5  1  0
  5  6  1  0
  6  7  1  6
  7  8  2  0
  7  9  1  0
  6 10  1  0
 10 11  1  1
 10 12  1  0
 12 13  2  0
 13 14  1  0
 15 14  1  6
 15 16  1  0
 16 17  1  1
 16 18  1  0
 18 19  1  0
 19 20  1  0
 20 21  1  1
 20 22  1  0
 22 23  1  0
 22 24  1  0
 22 25  1  0
 25 26  1  1
 26 27  1  0
 27 28  1  0
 28 29  1  1
 28 30  1  0
 30 31  1  1
 30 32  1  0
 32 33  1  0
 33 34  1  1
 11  2  1  0
 30 12  1  0
 33  6  1  0
 28 15  1  0
 25 16  1  0
M  END
$$$$
