
     RDKit          3D

 18 18  0  0  0  0  0  0  0  0999 V2000
  -18.5721   38.2153  -23.3080 Cl  0  0  0  0  0  0  0  0  0  0  0  0
  -19.9551   36.1512  -26.2410 N   0  0  0  0  0  0  0  0  0  0  0  0
  -20.3462   37.3157  -25.5000 C   0  0  0  0  0  0  0  0  0  0  0  0
  -19.1785   37.7681  -24.6019 C   0  0  0  0  0  0  0  0  0  0  0  0
  -18.8065   36.7668  -23.6883 N   0  0  0  0  0  0  0  0  0  0  0  0
  -17.5395   37.0463  -22.6021 S   0  0  0  0  0  6  0  0  0  0  0  0
  -16.2616   37.2027  -23.4254 O   0  0  0  0  0  0  0  0  0  0  0  0
  -17.2695   35.7982  -21.7582 O   0  0  0  0  0  0  0  0  0  0  0  0
  -17.7805   38.3582  -21.4914 C   0  0  0  0  0  0  0  0  0  0  0  0
  -18.1776   38.0800  -20.1700 C   0  0  0  0  0  0  0  0  0  0  0  0
  -18.4589   39.0917  -19.2940 C   0  0  0  0  0  0  0  0  0  0  0  0
  -18.3603   40.4049  -19.6818 C   0  0  0  0  0  0  0  0  0  0  0  0
  -17.9730   40.7275  -20.9651 C   0  0  0  0  0  0  0  0  0  0  0  0
  -17.8650   42.0641  -21.2877 C   0  0  0  0  0  0  0  0  0  0  0  0
  -17.4569   42.3676  -22.5317 N   0  0  0  0  0  0  0  0  0  0  0  0
  -17.1703   41.3902  -23.4098 C   0  0  0  0  0  0  0  0  0  0  0  0
  -17.2750   40.0480  -23.0998 C   0  0  0  0  0  0  0  0  0  0  0  0
  -17.6880   39.6843  -21.8500 C   0  0  0  0  0  0  0  0  0  0  0  0
  2  3  1  0
  3  4  1  0
  4  5  1  0
  5  6  1  0
  6  7  2  0
  6  8  2  0
  6  9  1  0
  9 10  2  0
 10 11  1  0
 11 12  2  0
 12 13  1  0
 13 14  2  0
 14 15  1  0
 15 16  2  0
 16 17  1  0
 17 18  2  0
 18  9  1  0
 18 13  1  0
M  END
$$$$
