
     RDKit          3D

 35 39  0  0  0  0  0  0  0  0999 V2000
  -23.7816   20.1196  -23.4051 C   0  0  0  0  0  0  0  0  0  0  0  0
  -23.6845   18.9693  -22.4766 C   0  0  0  0  0  0  0  0  0  0  0  0
  -23.9874   17.6889  -22.9446 C   0  0  0  0  0  0  0  0  0  0  0  0
  -23.8885   16.6433  -22.0587 C   0  0  0  0  0  0  0  0  0  0  0  0
  -24.1872   15.3312  -22.4939 N   0  0  0  0  0  0  0  0  0  0  0  0
  -24.3097   15.0612  -23.8802 C   0  0  0  0  0  0  0  0  0  0  0  0
  -23.4010   14.2264  -24.5207 C   0  0  0  0  0  0  0  0  0  0  0  0
  -23.5254   13.9645  -25.8787 C   0  0  0  0  0  0  0  0  0  0  0  0
  -24.5415   14.5218  -26.6075 C   0  0  0  0  0  0  0  0  0  0  0  0
  -24.7142   14.2866  -28.0007 N   0  0  0  0  0  0  0  0  0  0  0  0
  -24.9937   15.3207  -28.9216 C   0  0  0  0  0  0  0  0  0  0  0  0
  -25.1293   16.4730  -28.4319 O   0  0  0  0  0  0  0  0  0  0  0  0
  -25.1265   15.1186  -30.3600 C   0  0  0  0  0  0  0  0  0  0  0  0
  -24.9486   13.8318  -30.8670 C   0  0  0  0  0  0  0  0  0  0  0  0
  -25.0571   13.5762  -32.2165 C   0  0  0  0  0  0  0  0  0  0  0  0
  -25.3470   14.5927  -33.1132 C   0  0  0  0  0  0  0  0  0  0  0  0
  -25.4272   14.2675  -34.4957 N   0  0  0  0  0  0  0  0  0  0  0  0
  -24.6717   15.0164  -35.4269 C   0  0  0  0  0  0  0  0  0  0  0  0
  -24.0356   16.1442  -34.9657 C   0  0  0  0  0  0  0  0  0  0  0  0
  -23.2728   16.9269  -35.8299 C   0  0  0  0  0  0  0  0  0  0  0  0
  -23.1645   16.5678  -37.1206 N   0  0  0  0  0  0  0  0  0  0  0  0
  -23.7674   15.4712  -37.6215 C   0  0  0  0  0  0  0  0  0  0  0  0
  -23.5942   15.1722  -38.9550 C   0  0  0  0  0  0  0  0  0  0  0  0
  -24.2207   14.0323  -39.4248 C   0  0  0  0  0  0  0  0  0  0  0  0
  -24.9813   13.2360  -38.5941 C   0  0  0  0  0  0  0  0  0  0  0  0
  -25.1379   13.5683  -37.2431 C   0  0  0  0  0  0  0  0  0  0  0  0
  -24.5314   14.6868  -36.7563 C   0  0  0  0  0  0  0  0  0  0  0  0
  -25.5211   15.8593  -32.6078 C   0  0  0  0  0  0  0  0  0  0  0  0
  -25.4129   16.1133  -31.2610 C   0  0  0  0  0  0  0  0  0  0  0  0
  -25.4276   15.3458  -25.9446 C   0  0  0  0  0  0  0  0  0  0  0  0
  -25.3310   15.6244  -24.6015 C   0  0  0  0  0  0  0  0  0  0  0  0
  -23.5155   16.8211  -20.7847 N   0  0  0  0  0  0  0  0  0  0  0  0
  -23.2241   18.0707  -20.3431 C   0  0  0  0  0  0  0  0  0  0  0  0
  -22.8294   18.2670  -18.9946 N   0  0  0  0  0  0  0  0  0  0  0  0
  -23.3174   19.0839  -21.1904 N   0  0  0  0  0  0  0  0  0  0  0  0
  1  2  1  0
  2  3  2  0
  3  4  1  0
  4  5  1  0
  5  6  1  0
  6  7  2  0
  7  8  1  0
  8  9  2  0
  9 10  1  0
 10 11  1  0
 11 12  2  0
 11 13  1  0
 13 14  2  0
 14 15  1  0
 15 16  2  0
 16 17  1  0
 17 18  1  0
 18 19  2  0
 19 20  1  0
 20 21  2  0
 21 22  1  0
 22 23  2  0
 23 24  1  0
 24 25  2  0
 25 26  1  0
 26 27  2  0
 16 28  1  0
 28 29  2  0
  9 30  1  0
 30 31  2  0
  4 32  2  0
 32 33  1  0
 33 34  1  0
 33 35  2  0
 35  2  1  0
 31  6  1  0
 29 13  1  0
 27 18  1  0
 27 22  1  0
M  END
$$$$
