
     RDKit          3D

 33 36  0  0  0  0  0  0  0  0999 V2000
  -21.7453   14.5233  -18.6633 N   0  0  0  0  0  0  0  0  0  0  0  0
  -21.5887   14.0662  -20.0187 C   0  0  0  0  0  0  0  0  0  0  0  0
  -22.5859   13.4773  -20.6835 N   0  0  0  0  0  0  0  0  0  0  0  0
  -22.4410   13.0465  -21.9787 C   0  0  0  0  0  0  0  0  0  0  0  0
  -23.5423   12.4314  -22.6173 N   0  0  0  0  0  0  0  0  0  0  0  0
  -24.8722   12.3194  -22.1050 C   0  0  0  0  0  0  0  0  0  0  0  0
  -24.9332   11.6756  -20.7388 C   0  0  0  0  0  0  0  0  0  0  0  0
  -26.1216   10.8616  -20.6275 N   0  0  0  0  0  0  0  0  0  0  0  0
  -27.4233   11.4578  -20.4991 C   0  0  0  0  0  0  0  0  0  0  0  0
  -28.4842   10.7221  -20.1175 N   0  0  0  0  0  0  0  0  0  0  0  0
  -29.7330   11.1956  -19.9984 C   0  0  0  0  0  0  0  0  0  0  0  0
  -29.9238   12.5568  -20.2980 C   0  0  0  0  0  0  0  0  0  0  0  0
  -31.2076   13.1317  -20.2128 N   0  0  0  0  0  0  0  0  0  0  0  0
  -32.2842   12.6222  -20.8257 C   0  0  0  0  0  0  0  0  0  0  0  0
  -33.3938   13.4202  -20.5424 C   0  0  0  0  0  0  0  0  0  0  0  0
  -32.9389   14.4015  -19.7546 N   0  0  0  0  0  0  0  0  0  0  0  0
  -31.6131   14.2223  -19.5574 C   0  0  0  0  0  0  0  0  0  0  0  0
  -28.8544   13.3382  -20.6916 C   0  0  0  0  0  0  0  0  0  0  0  0
  -29.0923   14.7384  -20.9798 C   0  0  0  0  0  0  0  0  0  0  0  0
  -28.8970   15.7175  -19.9899 C   0  0  0  0  0  0  0  0  0  0  0  0
  -29.1546   17.0326  -20.3239 C   0  0  0  0  0  0  0  0  0  0  0  0
  -29.5901   17.4144  -21.5768 C   0  0  0  0  0  0  0  0  0  0  0  0
  -29.9105   19.0845  -21.9906 Cl  0  0  0  0  0  0  0  0  0  0  0  0
  -29.7738   16.4291  -22.5337 C   0  0  0  0  0  0  0  0  0  0  0  0
  -29.5243   15.1004  -22.2310 C   0  0  0  0  0  0  0  0  0  0  0  0
  -29.7405   13.8440  -23.4302 Cl  0  0  0  0  0  0  0  0  0  0  0  0
  -27.6470   12.7558  -20.7756 N   0  0  0  0  0  0  0  0  0  0  0  0
  -21.2430   13.2134  -22.6331 C   0  0  0  0  0  0  0  0  0  0  0  0
  -20.1672   13.8219  -21.9820 C   0  0  0  0  0  0  0  0  0  0  0  0
  -20.3815   14.2310  -20.6827 C   0  0  0  0  0  0  0  0  0  0  0  0
  -19.3217   14.8570  -19.9715 N   0  0  0  0  0  4  0  0  0  0  0  0
  -18.1493   14.5672  -20.2836 O   0  0  0  0  0  0  0  0  0  0  0  0
  -19.5522   15.7616  -18.9593 O   0  0  0  0  0  1  0  0  0  0  0  0
  1  2  1  0
  2  3  2  0
  3  4  1  0
  4  5  1  0
  5  6  1  0
  6  7  1  0
  7  8  1  0
  8  9  1  0
  9 10  2  0
 10 11  1  0
 11 12  2  0
 12 13  1  0
 13 14  1  0
 14 15  2  0
 15 16  1  0
 16 17  2  0
 12 18  1  0
 18 19  1  0
 19 20  2  0
 20 21  1  0
 21 22  2  0
 22 23  1  0
 22 24  1  0
 24 25  2  0
 25 26  1  0
 18 27  2  0
  4 28  2  0
 28 29  1  0
 29 30  2  0
 30 31  1  0
 31 32  2  0
 31 33  1  0
 30  2  1  0
 27  9  1  0
 17 13  1  0
 25 19  1  0
M  CHG  2  31   1  33  -1
M  END
$$$$
