
     RDKit          3D

 18 19  0  0  0  0  0  0  0  0999 V2000
  -45.6050    6.1946  -38.0448 C   0  0  0  0  0  0  0  0  0  0  0  0
  -44.4562    6.0117  -37.1050 C   0  0  0  0  0  0  0  0  0  0  0  0
  -44.7519    4.9202  -36.1484 C   0  0  0  0  0  0  0  0  0  0  0  0
  -45.8795    4.8811  -35.5973 O   0  0  0  0  0  0  0  0  0  0  0  0
  -43.8412    3.9368  -35.8326 O   0  0  0  0  0  0  0  0  0  0  0  0
  -44.3092    7.2771  -36.3183 C   0  0  0  0  0  0  0  0  0  0  0  0
  -45.2902    8.1954  -36.1399 C   0  0  0  0  0  0  0  0  0  0  0  0
  -45.0444    9.3354  -35.3774 C   0  0  0  0  0  0  0  0  0  0  0  0
  -43.8348    9.5934  -34.7761 C   0  0  0  0  0  0  0  0  0  0  0  0
  -43.5391   10.7503  -33.9643 C   0  0  0  0  0  0  0  0  0  0  0  0
  -44.1327   11.8381  -34.3190 O   0  0  0  0  0  0  0  0  0  0  0  0
  -42.6507   10.7571  -32.8267 C   0  0  0  0  0  0  0  0  0  0  0  0
  -42.3162    9.7154  -31.9641 C   0  0  0  0  0  0  0  0  0  0  0  0
  -41.4803    9.9536  -30.9776 C   0  0  0  0  0  0  0  0  0  0  0  0
  -40.9431   11.2239  -30.8047 C   0  0  0  0  0  0  0  0  0  0  0  0
  -41.7035   12.1156  -32.1569 S   0  0  0  0  0  0  0  0  0  0  0  0
  -42.8220    8.6454  -34.9596 C   0  0  0  0  0  0  0  0  0  0  0  0
  -43.0652    7.5194  -35.7131 C   0  0  0  0  0  0  0  0  0  0  0  0
  1  2  1  0
  2  3  1  0
  3  4  2  0
  3  5  1  0
  2  6  1  0
  6  7  2  0
  7  8  1  0
  8  9  2  0
  9 10  1  0
 10 11  2  0
 10 12  1  0
 12 13  2  0
 13 14  1  0
 14 15  2  0
 15 16  1  0
  9 17  1  0
 17 18  2  0
 18  6  1  0
 16 12  1  0
M  END
$$$$
