
     RDKit          3D

 22 23  0  0  0  0  0  0  0  0999 V2000
  -21.5478   41.6407  -25.0496 C   0  0  0  0  0  0  0  0  0  0  0  0
  -20.4587   41.6981  -24.1527 O   0  0  0  0  0  0  0  0  0  0  0  0
  -19.9297   42.9123  -23.7590 C   0  0  0  0  0  0  0  0  0  0  0  0
  -20.4224   43.9614  -24.2248 O   0  0  0  0  0  0  0  0  0  0  0  0
  -18.8493   42.9788  -22.8454 C   0  0  0  0  0  0  0  0  0  0  0  0
  -18.0273   44.4711  -22.2526 S   0  0  0  0  0  0  0  0  0  0  0  0
  -16.8459   43.6616  -21.1910 C   0  0  0  0  0  0  0  0  0  0  0  0
  -15.8411   44.3462  -20.3855 C   0  0  0  0  0  0  0  0  0  0  0  0
  -15.2968   45.6097  -20.5026 C   0  0  0  0  0  0  0  0  0  0  0  0
  -14.3816   45.9897  -19.6178 C   0  0  0  0  0  0  0  0  0  0  0  0
  -13.9696   45.1751  -18.6086 C   0  0  0  0  0  0  0  0  0  0  0  0
  -15.0220   43.6727  -18.9652 S   0  0  0  0  0  0  0  0  0  0  0  0
  -17.1443   42.3462  -21.3513 C   0  0  0  0  0  0  0  0  0  0  0  0
  -18.1367   42.0096  -22.1710 C   0  0  0  0  0  0  0  0  0  0  0  0
  -18.5085   40.6175  -22.3883 N   0  0  0  0  0  0  0  0  0  0  0  0
  -18.3408   39.6746  -21.3625 C   0  0  0  0  0  0  0  0  0  0  0  0
  -17.7652   40.0259  -20.3044 O   0  0  0  0  0  0  0  0  0  0  0  0
  -18.8263   38.3069  -21.5197 C   0  0  0  0  0  0  0  0  0  0  0  0
  -18.3719   37.3320  -20.7445 C   0  0  0  0  0  0  0  0  0  0  0  0
  -18.8847   35.9779  -20.8587 C   0  0  0  0  0  0  0  0  0  0  0  0
  -18.4130   35.0630  -20.1594 O   0  0  0  0  0  0  0  0  0  0  0  0
  -19.8997   35.6957  -21.7445 O   0  0  0  0  0  0  0  0  0  0  0  0
  1  2  1  0
  2  3  1  0
  3  4  2  0
  3  5  1  0
  5  6  1  0
  6  7  1  0
  7  8  1  0
  8  9  2  0
  9 10  1  0
 10 11  2  0
 11 12  1  0
  7 13  2  0
 13 14  1  0
 14 15  1  0
 15 16  1  0
 16 17  2  0
 16 18  1  0
 18 19  2  0
 19 20  1  0
 20 21  2  0
 20 22  1  0
 14  5  2  0
 12  8  1  0
M  END
$$$$
