
     RDKit          3D

 27 30  0  0  0  0  0  0  0  0999 V2000
  -17.6788   47.4243  -27.9287 C   0  0  0  0  0  0  0  0  0  0  0  0
  -19.0485   46.8783  -27.5691 C   0  0  0  0  0  0  0  0  0  0  0  0
  -19.0565   46.4155  -26.1299 C   0  0  0  0  0  0  0  0  0  0  0  0
  -20.3491   45.7563  -25.7588 C   0  0  0  0  0  0  0  0  0  0  0  0
  -20.2300   44.1067  -25.1483 S   0  0  0  0  0  4  0  0  0  0  0  0
  -21.6002   43.5373  -24.8901 O   0  0  0  0  0  0  0  0  0  0  0  0
  -19.1429   43.9162  -23.7536 C   0  0  0  0  0  0  0  0  0  0  0  0
  -18.1167   45.1697  -23.1408 S   0  0  0  0  0  0  0  0  0  0  0  0
  -17.3924   44.2555  -21.8526 C   0  0  0  0  0  0  0  0  0  0  0  0
  -16.4388   44.5730  -20.9013 N   0  0  0  0  0  0  0  0  0  0  0  0
  -16.0215   43.6651  -19.9992 C   0  0  0  0  0  0  0  0  0  0  0  0
  -15.0293   44.0108  -19.0180 C   0  0  0  0  0  0  0  0  0  0  0  0
  -14.3268   43.3063  -18.0871 C   0  0  0  0  0  0  0  0  0  0  0  0
  -13.4486   43.9207  -17.2956 C   0  0  0  0  0  0  0  0  0  0  0  0
  -13.2032   45.2457  -17.3613 C   0  0  0  0  0  0  0  0  0  0  0  0
  -14.3839   45.7133  -18.7475 S   0  0  0  0  0  0  0  0  0  0  0  0
  -16.5856   42.4232  -20.0715 C   0  0  0  0  0  0  0  0  0  0  0  0
  -17.5327   42.0993  -21.0110 C   0  0  0  0  0  0  0  0  0  0  0  0
  -18.0631   40.7209  -20.9121 C   0  0  0  0  0  0  0  0  0  0  0  0
  -17.2832   39.6923  -21.3988 C   0  0  0  0  0  0  0  0  0  0  0  0
  -17.6921   38.3648  -21.3158 C   0  0  0  0  0  0  0  0  0  0  0  0
  -18.9029   38.0499  -20.7366 C   0  0  0  0  0  0  0  0  0  0  0  0
  -19.6918   39.0874  -20.2442 C   0  0  0  0  0  0  0  0  0  0  0  0
  -19.2571   40.3962  -20.3416 C   0  0  0  0  0  0  0  0  0  0  0  0
  -17.9810   43.0129  -21.9535 C   0  0  0  0  0  0  0  0  0  0  0  0
  -18.8776   42.8551  -22.9356 C   0  0  0  0  0  0  0  0  0  0  0  0
  -19.5945   41.6228  -23.2193 N   0  0  0  0  0  0  0  0  0  0  0  0
  1  2  1  0
  2  3  1  0
  3  4  1  0
  4  5  1  0
  5  6  2  0
  5  7  1  0
  7  8  1  0
  8  9  1  0
  9 10  2  0
 10 11  1  0
 11 12  1  0
 12 13  2  0
 13 14  1  0
 14 15  2  0
 15 16  1  0
 11 17  2  0
 17 18  1  0
 18 19  1  0
 19 20  2  0
 20 21  1  0
 21 22  2  0
 22 23  1  0
 23 24  2  0
 18 25  2  0
 25 26  1  0
 26 27  1  0
 26  7  2  0
 25  9  1  0
 16 12  1  0
 24 19  1  0
M  END
$$$$
