
     RDKit          3D

 24 27  0  0  0  0  0  0  0  0999 V2000
  -22.8741   35.0365  -21.7809 N   0  0  0  0  0  0  0  0  0  0  0  0
  -21.7111   34.9720  -21.7801 C   0  0  0  0  0  0  0  0  0  0  0  0
  -20.1037   34.8900  -21.8064 C   0  0  0  0  0  0  0  0  0  0  0  0
  -19.5595   36.0475  -22.1945 C   0  0  0  0  0  0  0  0  0  0  0  0
  -19.8158   37.3444  -22.3738 N   0  0  0  0  0  0  0  0  0  0  0  0
  -19.2113   38.5016  -22.0537 C   0  0  0  0  0  0  0  0  0  0  0  0
  -17.9101   38.4102  -21.6352 O   0  0  0  0  0  0  0  0  0  0  0  0
  -19.6803   39.9028  -22.0750 C   0  0  0  0  0  0  0  0  0  0  0  0
  -20.9199   40.2314  -21.7648 C   0  0  0  0  0  0  0  0  0  0  0  0
  -21.3015   41.6036  -21.6942 C   0  0  0  0  0  0  0  0  0  0  0  0
  -20.3576   42.5070  -21.9624 C   0  0  0  0  0  0  0  0  0  0  0  0
  -19.0747   42.1879  -22.2838 C   0  0  0  0  0  0  0  0  0  0  0  0
  -18.0161   43.1166  -22.4628 C   0  0  0  0  0  0  0  0  0  0  0  0
  -16.8658   42.6841  -22.6519 C   0  0  0  0  0  0  0  0  0  0  0  0
  -16.2840   41.3779  -22.7524 C   0  0  0  0  0  0  0  0  0  0  0  0
  -17.3935   40.4473  -22.5776 C   0  0  0  0  0  0  0  0  0  0  0  0
  -18.6485   40.8560  -22.3607 C   0  0  0  0  0  0  0  0  0  0  0  0
  -17.9653   35.2211  -22.7890 S   0  0  0  0  0  0  0  0  0  0  0  0
  -18.3961   33.5018  -22.3903 C   0  0  0  0  0  0  0  0  0  0  0  0
  -19.6163   33.7402  -21.8704 C   0  0  0  0  0  0  0  0  0  0  0  0
  -20.2887   32.3912  -21.3761 C   0  0  0  0  0  0  0  0  0  0  0  0
  -19.9322   31.4429  -22.4757 C   0  0  0  0  0  0  0  0  0  0  0  0
  -18.4787   31.0907  -22.1497 C   0  0  0  0  0  0  0  0  0  0  0  0
  -17.6441   32.2535  -22.5386 C   0  0  0  0  0  0  0  0  0  0  0  0
  1  2  3  0
  2  3  1  0
  3  4  2  0
  4  5  1  0
  5  6  1  0
  6  7  2  0
  6  8  1  0
  8  9  2  0
  9 10  1  0
 10 11  2  0
 11 12  1  0
 12 13  2  0
 13 14  1  0
 14 15  2  0
 15 16  1  0
 16 17  2  0
  4 18  1  0
 18 19  1  0
 19 20  2  0
 20 21  1  0
 21 22  1  0
 22 23  1  0
 23 24  1  0
 20  3  1  0
 17  8  1  0
 24 19  1  0
 17 12  1  0
M  END
$$$$
