
     RDKit          3D

 12 13  0  0  0  0  0  0  0  0999 V2000
  -21.8119   18.1829  -31.0729 C   0  0  0  0  0  0  0  0  0  0  0  0
  -20.9729   18.7659  -30.1554 C   0  0  0  0  0  0  0  0  0  0  0  0
  -19.6518   18.8867  -30.3875 N   0  0  0  0  0  0  0  0  0  0  0  0
  -19.1077   18.4295  -31.5494 C   0  0  0  0  0  0  0  0  0  0  0  0
  -19.8987   17.8372  -32.5040 C   0  0  0  0  0  0  0  0  0  0  0  0
  -19.4080   17.3088  -33.7964 C   0  0  2  0  0  0  0  0  0  0  0  0
  -19.5541   15.8241  -33.8761 C   0  0  0  0  0  0  0  0  0  0  0  0
  -18.3238   15.0459  -33.5535 C   0  0  0  0  0  0  0  0  0  0  0  0
  -17.0586   15.5913  -34.1369 C   0  0  0  0  0  0  0  0  0  0  0  0
  -17.2039   16.9681  -34.7189 C   0  0  0  0  0  0  0  0  0  0  0  0
  -18.0963   17.8063  -34.0071 N   0  0  0  0  0  0  0  0  0  0  0  0
  -21.2593   17.7235  -32.2424 C   0  0  0  0  0  0  0  0  0  0  0  0
  1  2  2  0
  2  3  1  0
  3  4  2  0
  4  5  1  0
  6  5  1  1
  6  7  1  0
  7  8  1  0
  8  9  1  0
  9 10  1  0
 10 11  1  0
  5 12  2  0
 12  1  1  0
 11  6  1  0
M  END
$$$$
