
     RDKit          3D

 41 44  0  0  0  0  0  0  0  0999 V2000
  -48.0243    5.3368  -35.4783 C   0  0  0  0  0  0  0  0  0  0  0  0
  -46.8651    4.8543  -36.2134 N   0  0  0  0  0  0  0  0  0  0  0  0
  -46.3966    5.8448  -37.1714 C   0  0  1  0  0  0  0  0  0  0  0  0
  -47.1296    5.6705  -38.4827 C   0  0  0  0  0  0  0  0  0  0  0  0
  -46.7158    7.1889  -36.6357 C   0  0  0  0  0  0  0  0  0  0  0  0
  -46.8435    8.1086  -37.4927 O   0  0  0  0  0  0  0  0  0  0  0  0
  -46.8733    7.4547  -35.2469 N   0  0  0  0  0  0  0  0  0  0  0  0
  -46.0474    8.4660  -34.6453 C   0  0  1  0  0  0  0  0  0  0  0  0
  -46.2986    8.7161  -33.1907 C   0  0  0  0  0  0  0  0  0  0  0  0
  -46.1947   10.1545  -32.8759 N   0  0  0  0  0  0  0  0  0  0  0  0
  -47.3415   10.6289  -32.1944 C   0  0  0  0  0  0  0  0  0  0  0  0
  -48.4365   10.7210  -32.8598 O   0  0  0  0  0  0  0  0  0  0  0  0
  -47.4322   11.0342  -30.7932 C   0  0  0  0  0  0  0  0  0  0  0  0
  -46.1317   11.6019  -30.2534 C   0  0  0  0  0  0  0  0  0  0  0  0
  -46.4555   12.4760  -29.0652 C   0  0  0  0  0  0  0  0  0  0  0  0
  -45.2496   10.4974  -29.7929 C   0  0  0  0  0  0  0  0  0  0  0  0
  -45.1511   11.1070  -33.1237 C   0  0  0  0  0  0  0  0  0  0  0  0
  -43.7628   10.4670  -32.9670 C   0  0  0  0  0  0  0  0  0  0  0  0
  -43.1257   10.2170  -34.2824 C   0  0  1  0  0  0  0  0  0  0  0  0
  -41.6498   10.4250  -34.3610 C   0  0  0  0  0  0  0  0  0  0  0  0
  -41.2462    9.4124  -35.4402 C   0  0  0  0  0  0  0  0  0  0  0  0
  -42.1159    8.2217  -34.9731 C   0  0  1  0  0  0  0  0  0  0  0  0
  -41.4016    7.7080  -33.7754 C   0  0  0  0  0  0  0  0  0  0  0  0
  -41.2549    8.3849  -32.7246 O   0  0  0  0  0  0  0  0  0  0  0  0
  -40.8318    6.4066  -33.7225 N   0  0  0  0  0  0  0  0  0  0  0  0
  -41.5821    5.1952  -34.0212 C   0  0  0  0  0  0  0  0  0  0  0  0
  -41.5902    4.3560  -32.8180 C   0  0  0  0  0  0  0  0  0  0  0  0
  -40.9143    4.6797  -31.6401 C   0  0  0  0  0  0  0  0  0  0  0  0
  -40.9642    3.8373  -30.5533 C   0  0  0  0  0  0  0  0  0  0  0  0
  -41.6774    2.6641  -30.6042 C   0  0  0  0  0  0  0  0  0  0  0  0
  -42.3495    2.3124  -31.7300 C   0  0  0  0  0  0  0  0  0  0  0  0
  -42.2939    3.1584  -32.8078 C   0  0  0  0  0  0  0  0  0  0  0  0
  -40.8871    4.4248  -35.1011 C   0  0  0  0  0  0  0  0  0  0  0  0
  -41.4747    4.0768  -36.2922 C   0  0  0  0  0  0  0  0  0  0  0  0
  -40.7390    3.3367  -37.2135 C   0  0  0  0  0  0  0  0  0  0  0  0
  -39.4214    2.9496  -36.9395 C   0  0  0  0  0  0  0  0  0  0  0  0
  -38.8343    3.3023  -35.7418 C   0  0  0  0  0  0  0  0  0  0  0  0
  -39.5941    4.0329  -34.8582 C   0  0  0  0  0  0  0  0  0  0  0  0
  -43.3876    8.8466  -34.6649 N   0  0  0  0  0  0  0  0  0  0  0  0
  -44.5942    8.1167  -34.7669 C   0  0  0  0  0  0  0  0  0  0  0  0
  -44.3710    6.9075  -35.0145 O   0  0  0  0  0  0  0  0  0  0  0  0
  1  2  1  0
  2  3  1  0
  3  4  1  6
  3  5  1  0
  5  6  2  0
  5  7  1  0
  8  7  1  1
  8  9  1  0
  9 10  1  0
 10 11  1  0
 11 12  2  0
 11 13  1  0
 13 14  1  0
 14 15  1  0
 14 16  1  0
 10 17  1  0
 17 18  1  0
 19 18  1  1
 19 20  1  0
 20 21  1  0
 21 22  1  0
 22 23  1  1
 23 24  2  0
 23 25  1  0
 25 26  1  0
 26 27  1  0
 27 28  2  0
 28 29  1  0
 29 30  2  0
 30 31  1  0
 31 32  2  0
 26 33  1  0
 33 34  2  0
 34 35  1  0
 35 36  2  0
 36 37  1  0
 37 38  2  0
 22 39  1  0
 39 40  1  0
 40 41  2  0
 40  8  1  0
 39 19  1  0
 32 27  1  0
 38 33  1  0
M  END
$$$$
