
     RDKit          3D

 27 29  0  0  0  0  0  0  0  0999 V2000
  -13.6341   18.5914  -37.6896 C   0  0  0  0  0  0  0  0  0  0  0  0
  -15.0326   18.2468  -37.3072 C   0  0  0  0  0  0  0  0  0  0  0  0
  -15.3316   17.6600  -36.1078 N   0  0  0  0  0  0  0  0  0  0  0  0
  -16.7440   17.5433  -36.1474 C   0  0  0  0  0  0  0  0  0  0  0  0
  -17.4075   16.9052  -34.7965 C   0  0  0  0  0  0  0  0  0  0  0  0
  -17.8887   16.4242  -33.8270 C   0  0  0  0  0  0  0  0  0  0  0  0
  -18.3784   15.9633  -32.8684 C   0  0  0  0  0  0  0  0  0  0  0  0
  -17.8676   14.9633  -31.9439 C   0  0  0  0  0  0  0  0  0  0  0  0
  -18.5212   14.4625  -30.9063 C   0  0  0  0  0  0  0  0  0  0  0  0
  -19.7849   14.8517  -30.5870 N   0  0  0  0  0  0  0  0  0  0  0  0
  -20.3851   15.7694  -31.3517 C   0  0  0  0  0  0  0  0  0  0  0  0
  -22.0488   16.2048  -30.9158 Cl  0  0  0  0  0  0  0  0  0  0  0  0
  -19.7537   16.2828  -32.3950 C   0  0  0  0  0  0  0  0  0  0  0  0
  -17.1055   17.8783  -37.1958 C   0  0  0  0  0  0  0  0  0  0  0  0
  -18.5449   17.8314  -37.7719 C   0  0  0  0  0  0  0  0  0  0  0  0
  -16.1237   18.4384  -38.0499 N   0  0  0  0  0  0  0  0  0  0  0  0
  -16.3767   18.8906  -39.3308 C   0  0  0  0  0  0  0  0  0  0  0  0
  -17.1769   20.1089  -39.4056 C   0  0  0  0  0  0  0  0  0  0  0  0
  -17.4858   20.6626  -40.5168 C   0  0  0  0  0  0  0  0  0  0  0  0
  -17.1386   20.2369  -41.7980 C   0  0  0  0  0  0  0  0  0  0  0  0
  -17.4491   20.7996  -42.9501 O   0  0  0  0  0  0  0  0  0  0  0  0
  -16.5237   21.4722  -43.7708 C   0  0  0  0  0  0  0  0  0  0  0  0
  -17.0167   21.8289  -44.9904 F   0  0  0  0  0  0  0  0  0  0  0  0
  -15.3515   20.7953  -43.7969 F   0  0  0  0  0  0  0  0  0  0  0  0
  -16.2543   22.6909  -43.0982 F   0  0  0  0  0  0  0  0  0  0  0  0
  -16.3485   19.0338  -41.7310 C   0  0  0  0  0  0  0  0  0  0  0  0
  -16.0145   18.4388  -40.5589 C   0  0  0  0  0  0  0  0  0  0  0  0
  1  2  1  0
  2  3  2  0
  3  4  1  0
  4  5  1  0
  5  6  3  0
  6  7  1  0
  7  8  2  0
  8  9  1  0
  9 10  2  0
 10 11  1  0
 11 12  1  0
 11 13  2  0
  4 14  2  0
 14 15  1  0
 14 16  1  0
 16 17  1  0
 17 18  2  0
 18 19  1  0
 19 20  2  0
 20 21  1  0
 21 22  1  0
 22 23  1  0
 22 24  1  0
 22 25  1  0
 20 26  1  0
 26 27  2  0
 16  2  1  0
 27 17  1  0
 13  7  1  0
M  END
$$$$
