
     RDKit          3D

 13 14  0  0  0  0  0  0  0  0999 V2000
  -18.0932   37.1431  -22.6349 N   0  0  0  0  0  0  0  0  0  0  0  0
  -19.1129   37.2253  -21.8578 C   0  0  0  0  0  0  0  0  0  0  0  0
  -19.2230   38.3904  -21.0431 N   0  0  0  0  0  0  0  0  0  0  0  0
  -20.0821   36.1855  -21.8257 N   0  0  0  0  0  0  0  0  0  0  0  0
  -21.3799   36.4983  -21.3146 C   0  0  0  0  0  0  0  0  0  0  0  0
  -22.2285   35.3337  -20.9558 C   0  0  0  0  0  0  0  0  0  0  0  0
  -21.5381   34.0398  -20.9124 C   0  0  0  0  0  0  0  0  0  0  0  0
  -22.1474   33.0165  -20.1874 C   0  0  0  0  0  0  0  0  0  0  0  0
  -21.5701   31.7553  -20.0882 C   0  0  0  0  0  0  0  0  0  0  0  0
  -20.3689   31.5293  -20.7270 C   0  0  0  0  0  0  0  0  0  0  0  0
  -19.7633   32.5589  -21.4520 C   0  0  0  0  0  0  0  0  0  0  0  0
  -20.3371   33.8020  -21.5469 C   0  0  0  0  0  0  0  0  0  0  0  0
  -19.6864   34.8769  -22.3146 C   0  0  0  0  0  0  0  0  0  0  0  0
  1  2  2  0
  2  3  1  0
  2  4  1  0
  4  5  1  0
  5  6  1  0
  6  7  1  0
  7  8  2  0
  8  9  1  0
  9 10  2  0
 10 11  1  0
 11 12  2  0
 12 13  1  0
 13  4  1  0
 12  7  1  0
M  END
$$$$
