
     RDKit          3D

 29 30  0  0  0  0  0  0  0  0999 V2000
  -31.4098   13.7201  -23.3450 C   0  0  0  0  0  0  0  0  0  0  0  0
  -30.6332   12.7673  -22.6629 N   0  0  0  0  0  0  0  0  0  0  0  0
  -31.2661   11.8323  -21.8248 C   0  0  0  0  0  0  0  0  0  0  0  0
  -31.5863   12.3358  -20.4525 C   0  0  0  0  0  0  0  0  0  0  0  0
  -32.2669   11.5076  -19.6114 O   0  0  0  0  0  0  0  0  0  0  0  0
  -32.6831   11.5269  -18.3473 C   0  0  0  0  0  0  0  0  0  0  0  0
  -32.5037   12.5898  -17.5081 C   0  0  0  0  0  0  0  0  0  0  0  0
  -32.9760   12.5315  -16.1850 C   0  0  0  0  0  0  0  0  0  0  0  0
  -33.6210   11.4178  -15.7098 C   0  0  0  0  0  0  0  0  0  0  0  0
  -34.0996   11.3339  -14.3796 N   0  0  0  0  0  0  0  0  0  0  0  0
  -34.8352    9.9564  -13.7060 S   0  0  0  0  0  6  0  0  0  0  0  0
  -34.2597    8.4245  -14.3455 C   0  0  0  0  0  0  0  0  0  0  0  0
  -36.3319   10.0236  -13.9512 O   0  0  0  0  0  0  0  0  0  0  0  0
  -34.5793    9.9863  -12.2158 O   0  0  0  0  0  0  0  0  0  0  0  0
  -33.8028   10.3414  -16.5571 C   0  0  0  0  0  0  0  0  0  0  0  0
  -33.3401   10.4154  -17.8326 C   0  0  0  0  0  0  0  0  0  0  0  0
  -29.2443   12.9265  -22.6309 C   0  0  0  0  0  0  0  0  0  0  0  0
  -28.5363   12.6325  -23.9286 C   0  0  0  0  0  0  0  0  0  0  0  0
  -27.0874   12.9419  -23.8894 C   0  0  0  0  0  0  0  0  0  0  0  0
  -26.1896   12.0887  -23.2518 C   0  0  0  0  0  0  0  0  0  0  0  0
  -24.8522   12.4213  -23.2396 C   0  0  0  0  0  0  0  0  0  0  0  0
  -24.3827   13.5680  -23.8375 C   0  0  0  0  0  0  0  0  0  0  0  0
  -22.9818   13.8913  -23.8083 N   0  0  0  0  0  0  0  0  0  0  0  0
  -21.8539   12.6760  -23.3923 S   0  0  0  0  0  6  0  0  0  0  0  0
  -22.0965   12.2837  -21.6748 C   0  0  0  0  0  0  0  0  0  0  0  0
  -20.4281   13.0737  -23.6781 O   0  0  0  0  0  0  0  0  0  0  0  0
  -22.1249   11.4615  -24.2409 O   0  0  0  0  0  0  0  0  0  0  0  0
  -25.2784   14.3896  -24.4567 C   0  0  0  0  0  0  0  0  0  0  0  0
  -26.6008   14.0854  -24.4833 C   0  0  0  0  0  0  0  0  0  0  0  0
  1  2  1  0
  2  3  1  0
  3  4  1  0
  4  5  1  0
  5  6  1  0
  6  7  2  0
  7  8  1  0
  8  9  2  0
  9 10  1  0
 10 11  1  0
 11 12  1  0
 11 13  2  0
 11 14  2  0
  9 15  1  0
 15 16  2  0
  2 17  1  0
 17 18  1  0
 18 19  1  0
 19 20  2  0
 20 21  1  0
 21 22  2  0
 22 23  1  0
 23 24  1  0
 24 25  1  0
 24 26  2  0
 24 27  2  0
 22 28  1  0
 28 29  2  0
 16  6  1  0
 29 19  1  0
M  END
$$$$
