
     RDKit          3D

 28 31  0  0  0  0  0  0  0  0999 V2000
  -20.3206   42.1741  -20.1566 O   0  0  0  0  0  0  0  0  0  0  0  0
  -19.4875   42.3240  -21.1086 C   0  0  0  0  0  0  0  0  0  0  0  0
  -19.0809   41.1361  -21.7667 N   0  0  0  0  0  0  0  0  0  0  0  0
  -19.7341   39.8961  -21.5019 C   0  0  0  0  0  0  0  0  0  0  0  0
  -21.1074   39.8065  -21.4580 C   0  0  0  0  0  0  0  0  0  0  0  0
  -21.7283   38.6367  -21.2080 N   0  0  0  0  0  0  0  0  0  0  0  0
  -21.0605   37.4916  -20.9871 C   0  0  0  0  0  0  0  0  0  0  0  0
  -19.6834   37.5289  -21.0203 C   0  0  0  0  0  0  0  0  0  0  0  0
  -19.0265   38.7363  -21.2787 C   0  0  0  0  0  0  0  0  0  0  0  0
  -17.2805   38.8268  -21.3297 Cl  0  0  0  0  0  0  0  0  0  0  0  0
  -19.0029   43.5944  -21.4810 N   0  0  0  0  0  0  0  0  0  0  0  0
  -19.5432   44.8621  -21.0633 C   0  0  0  0  0  0  0  0  0  0  0  0
  -18.4504   45.6935  -20.4230 C   0  0  0  0  0  0  0  0  0  0  0  0
  -17.2578   45.7452  -21.2024 N   0  0  0  0  0  0  0  0  0  0  0  0
  -16.2064   46.3804  -20.4642 C   0  0  0  0  0  0  0  0  0  0  0  0
  -15.3051   45.4578  -19.7713 C   0  0  0  0  0  0  0  0  0  0  0  0
  -15.6883   44.6532  -18.7230 C   0  0  0  0  0  0  0  0  0  0  0  0
  -14.7875   43.8075  -18.1163 C   0  0  0  0  0  0  0  0  0  0  0  0
  -13.4596   43.7376  -18.5423 C   0  0  0  0  0  0  0  0  0  0  0  0
  -13.0676   44.5306  -19.5810 C   0  0  0  0  0  0  0  0  0  0  0  0
  -13.9890   45.3856  -20.1903 C   0  0  0  0  0  0  0  0  0  0  0  0
  -11.7137   44.2617  -19.7935 O   0  0  0  0  0  0  0  0  0  0  0  0
  -11.2023   43.5416  -18.6693 C   0  0  0  0  0  0  0  0  0  0  0  0
  -10.2952   42.5871  -19.0558 F   0  0  0  0  0  0  0  0  0  0  0  0
  -10.5682   44.3893  -17.7751 F   0  0  0  0  0  0  0  0  0  0  0  0
  -12.3743   42.9819  -18.1067 O   0  0  0  0  0  0  0  0  0  0  0  0
  -16.7894   44.4546  -21.6397 C   0  0  0  0  0  0  0  0  0  0  0  0
  -17.8384   43.6734  -22.3794 C   0  0  0  0  0  0  0  0  0  0  0  0
  1  2  2  0
  2  3  1  0
  3  4  1  0
  4  5  2  0
  5  6  1  0
  6  7  2  0
  7  8  1  0
  8  9  2  0
  9 10  1  0
  2 11  1  0
 11 12  1  0
 12 13  1  0
 13 14  1  0
 14 15  1  0
 15 16  1  0
 16 17  2  0
 17 18  1  0
 18 19  2  0
 19 20  1  0
 20 21  2  0
 20 22  1  0
 22 23  1  0
 23 24  1  0
 23 25  1  0
 23 26  1  0
 14 27  1  0
 27 28  1  0
  9  4  1  0
 28 11  1  0
 21 16  1  0
 26 19  1  0
M  END
$$$$
