
     RDKit          3D

 33 36  0  0  0  0  0  0  0  0999 V2000
  -25.2195   18.3315  -24.2143 O   0  0  0  0  0  0  0  0  0  0  0  0
  -25.2187   17.0993  -23.8736 C   0  0  0  0  0  0  0  0  0  0  0  0
  -24.0864   16.3187  -24.2321 N   0  0  0  0  0  0  0  0  0  0  0  0
  -22.7704   16.5870  -23.7193 C   0  0  0  0  0  0  0  0  0  0  0  0
  -22.4925   17.7496  -23.0332 C   0  0  0  0  0  0  0  0  0  0  0  0
  -21.2073   17.9491  -22.5636 C   0  0  0  0  0  0  0  0  0  0  0  0
  -20.2130   17.0152  -22.7689 C   0  0  0  0  0  0  0  0  0  0  0  0
  -20.5494   15.9002  -23.4471 N   0  0  0  0  0  0  0  0  0  0  0  0
  -21.7848   15.6953  -23.9051 N   0  0  0  0  0  0  0  0  0  0  0  0
  -26.3215   16.5706  -23.1675 N   0  0  0  0  0  0  0  0  0  0  0  0
  -26.6375   15.1684  -23.3062 C   0  0  0  0  0  0  0  0  0  0  0  0
  -27.2246   14.7002  -21.9946 C   0  0  0  0  0  0  0  0  0  0  0  0
  -28.5420   15.4275  -21.8451 C   0  0  0  0  0  0  0  0  0  0  0  0
  -29.5574   14.7935  -21.3803 C   0  0  0  0  0  0  0  0  0  0  0  0
  -29.7293   13.3684  -21.1504 C   0  0  0  0  0  0  0  0  0  0  0  0
  -29.0846   12.6377  -20.1810 C   0  0  0  0  0  0  0  0  0  0  0  0
  -29.2869   11.2645  -20.0158 C   0  0  0  0  0  0  0  0  0  0  0  0
  -30.1594   10.5981  -20.8423 C   0  0  0  0  0  0  0  0  0  0  0  0
  -30.8298   11.3013  -21.8330 C   0  0  0  0  0  0  0  0  0  0  0  0
  -31.7049   10.5808  -22.6460 O   0  0  0  0  0  0  0  0  0  0  0  0
  -31.2141    9.9619  -23.7918 C   0  0  0  0  0  0  0  0  0  0  0  0
  -29.9768   10.3124  -24.2878 C   0  0  0  0  0  0  0  0  0  0  0  0
  -29.4499    9.7283  -25.4175 C   0  0  0  0  0  0  0  0  0  0  0  0
  -30.1858    8.7563  -26.0789 C   0  0  0  0  0  0  0  0  0  0  0  0
  -29.6569    8.0914  -27.3117 C   0  0  0  0  0  0  0  0  0  0  0  0
  -28.4362    7.5040  -27.0447 F   0  0  0  0  0  0  0  0  0  0  0  0
  -29.5349    9.0507  -28.2981 F   0  0  0  0  0  0  0  0  0  0  0  0
  -30.5516    7.0919  -27.6888 F   0  0  0  0  0  0  0  0  0  0  0  0
  -31.4160    8.4345  -25.5523 C   0  0  0  0  0  0  0  0  0  0  0  0
  -31.9099    9.0197  -24.4462 N   0  0  0  0  0  0  0  0  0  0  0  0
  -30.6093   12.6422  -21.9678 C   0  0  0  0  0  0  0  0  0  0  0  0
  -28.5628   16.8440  -22.2328 C   0  0  0  0  0  0  0  0  0  0  0  0
  -27.1342   17.3951  -22.3314 C   0  0  0  0  0  0  0  0  0  0  0  0
  1  2  2  0
  2  3  1  0
  3  4  1  0
  4  5  2  0
  5  6  1  0
  6  7  2  0
  7  8  1  0
  8  9  2  0
  2 10  1  0
 10 11  1  0
 11 12  1  0
 12 13  1  0
 13 14  2  3
 14 15  1  0
 15 16  2  0
 16 17  1  0
 17 18  2  0
 18 19  1  0
 19 20  1  0
 20 21  1  0
 21 22  2  0
 22 23  1  0
 23 24  2  0
 24 25  1  0
 25 26  1  0
 25 27  1  0
 25 28  1  0
 24 29  1  0
 29 30  2  0
 19 31  2  0
 13 32  1  0
 32 33  1  0
  9  4  1  0
 33 10  1  0
 31 15  1  0
 30 21  1  0
M  END
$$$$
