
     RDKit          3D

 17 18  0  0  0  0  0  0  0  0999 V2000
  -14.8560   44.2232  -18.2510 C   0  0  0  0  0  0  0  0  0  0  0  0
  -16.1785   44.4027  -18.6340 O   0  0  0  0  0  0  0  0  0  0  0  0
  -16.8739   43.7154  -19.6049 C   0  0  0  0  0  0  0  0  0  0  0  0
  -17.6649   42.6140  -19.2739 C   0  0  0  0  0  0  0  0  0  0  0  0
  -18.3621   41.9172  -20.2235 C   0  0  0  0  0  0  0  0  0  0  0  0
  -19.2248   40.7864  -19.9309 C   0  0  0  0  0  0  0  0  0  0  0  0
  -19.2170   39.7782  -20.7490 C   0  0  0  0  0  0  0  0  0  0  0  0
  -20.4774   38.5291  -20.8915 S   0  0  0  0  0  0  0  0  0  0  0  0
  -19.6492   37.6142  -22.2093 C   0  0  0  0  0  0  0  0  0  0  0  0
  -20.3283   36.1252  -22.9582 S   0  0  0  0  0  0  0  0  0  0  0  0
  -18.5869   38.2290  -22.4444 N   0  0  0  0  0  0  0  0  0  0  0  0
  -18.2569   39.3728  -21.7417 C   0  0  0  0  0  0  0  0  0  0  0  0
  -17.1770   40.0315  -21.9504 O   0  0  0  0  0  0  0  0  0  0  0  0
  -18.2657   42.3298  -21.5348 C   0  0  0  0  0  0  0  0  0  0  0  0
  -17.4884   43.4216  -21.9020 C   0  0  0  0  0  0  0  0  0  0  0  0
  -16.7992   44.1064  -20.9420 C   0  0  0  0  0  0  0  0  0  0  0  0
  -16.0251   45.1895  -21.2844 O   0  0  0  0  0  0  0  0  0  0  0  0
  1  2  1  0
  2  3  1  0
  3  4  2  0
  4  5  1  0
  5  6  1  0
  6  7  2  0
  7  8  1  0
  8  9  1  0
  9 10  1  0
  9 11  2  0
 11 12  1  0
 12 13  2  0
  5 14  2  0
 14 15  1  0
 15 16  2  0
 16 17  1  0
 16  3  1  0
 12  7  1  0
M  END
$$$$
