
     RDKit          3D

 22 24  0  0  0  0  0  0  0  0999 V2000
  -18.0042   43.0243  -20.9452 Cl  0  0  0  0  0  0  0  0  0  0  0  0
  -19.7428   43.8616  -19.2173 O   0  0  0  0  0  0  0  0  0  0  0  0
  -18.9635   43.3484  -20.0496 C   0  0  0  0  0  0  0  0  0  0  0  0
  -18.0298   44.2549  -20.6285 N   0  0  0  0  0  0  0  0  0  0  0  0
  -17.9295   45.6226  -20.3414 C   0  0  1  0  0  0  0  0  0  0  0  0
  -16.6014   45.8808  -19.6411 C   0  0  0  0  0  0  0  0  0  0  0  0
  -16.1899   47.2231  -19.9193 N   0  0  0  0  0  0  0  0  0  0  0  0
  -17.2693   48.1794  -19.7725 C   0  0  0  0  0  0  0  0  0  0  0  0
  -18.3460   47.9536  -20.7982 C   0  0  0  0  0  0  0  0  0  0  0  0
  -18.0618   46.5886  -21.4565 C   0  0  0  0  0  0  0  0  0  0  0  0
  -16.7814   46.8042  -22.2382 C   0  0  0  0  0  0  0  0  0  0  0  0
  -15.6909   47.2410  -21.3002 C   0  0  0  0  0  0  0  0  0  0  0  0
  -19.0088   41.9558  -20.3924 C   0  0  0  0  0  0  0  0  0  0  0  0
  -19.7497   40.8794  -20.0315 C   0  0  0  0  0  0  0  0  0  0  0  0
  -19.5341   39.6782  -20.5531 C   0  0  0  0  0  0  0  0  0  0  0  0
  -20.2470   38.4797  -20.2506 C   0  0  0  0  0  0  0  0  0  0  0  0
  -19.9144   37.3112  -20.8671 C   0  0  0  0  0  0  0  0  0  0  0  0
  -18.9125   37.1838  -21.7907 C   0  0  0  0  0  0  0  0  0  0  0  0
  -18.2083   38.3387  -22.0975 C   0  0  0  0  0  0  0  0  0  0  0  0
  -16.8906   38.3429  -23.2649 Cl  0  0  0  0  0  0  0  0  0  0  0  0
  -18.5477   39.4599  -21.4880 C   0  0  0  0  0  0  0  0  0  0  0  0
  -17.8703   41.1830  -21.6148 S   0  0  0  0  0  0  0  0  0  0  0  0
  2  3  2  0
  3  4  1  0
  5  4  1  6
  5  6  1  0
  6  7  1  0
  7  8  1  0
  8  9  1  0
  9 10  1  0
 10 11  1  0
 11 12  1  0
  3 13  1  0
 13 14  2  0
 14 15  1  0
 15 16  2  0
 16 17  1  0
 17 18  2  0
 18 19  1  0
 19 20  1  0
 19 21  2  0
 21 22  1  0
 10  5  1  0
 22 13  1  0
 12  7  1  0
 21 15  1  0
M  END
$$$$
