
     RDKit          3D

 26 28  0  0  0  0  0  0  0  0999 V2000
  -20.7715   41.1494  -21.0913 C   0  0  0  0  0  0  0  0  0  0  0  0
  -19.8119   40.1409  -20.5763 C   0  0  0  0  0  0  0  0  0  0  0  0
  -18.5879   39.8899  -21.3412 C   0  0  0  0  0  0  0  0  0  0  0  0
  -17.8198   41.1269  -22.2732 S   0  0  0  0  0  6  0  0  0  0  0  0
  -18.8934   41.5739  -23.3139 O   0  0  0  0  0  0  0  0  0  0  0  0
  -16.7247   40.5217  -23.1771 O   0  0  0  0  0  0  0  0  0  0  0  0
  -17.1932   42.4860  -21.5873 N   0  0  0  0  0  0  0  0  0  0  0  0
  -15.8769   42.4868  -21.0949 C   0  0  0  0  0  0  0  0  0  0  0  0
  -15.1544   43.8130  -21.4776 C   0  0  0  0  0  0  0  0  0  0  0  0
  -16.1299   44.9524  -21.3220 C   0  0  0  0  0  0  0  0  0  0  0  0
  -15.4211   46.0512  -20.8149 O   0  0  0  0  0  0  0  0  0  0  0  0
  -14.7616   46.0228  -19.5830 C   0  0  0  0  0  0  0  0  0  0  0  0
  -15.4802   45.9054  -18.4124 C   0  0  0  0  0  0  0  0  0  0  0  0
  -14.8658   45.8734  -17.1698 C   0  0  0  0  0  0  0  0  0  0  0  0
  -13.4899   45.9609  -17.0840 C   0  0  0  0  0  0  0  0  0  0  0  0
  -12.6469   45.9266  -15.5436 Cl  0  0  0  0  0  0  0  0  0  0  0  0
  -12.8032   46.0775  -18.2768 C   0  0  0  0  0  0  0  0  0  0  0  0
  -13.4238   46.1064  -19.4747 N   0  0  0  0  0  0  0  0  0  0  0  0
  -17.1788   44.5607  -20.3164 C   0  0  0  0  0  0  0  0  0  0  0  0
  -18.0158   43.3759  -20.8503 C   0  0  0  0  0  0  0  0  0  0  0  0
  -20.5501   38.8578  -20.5341 N   0  0  0  0  0  0  0  0  0  0  0  0
  -20.0802   38.1055  -19.4381 C   0  0  0  0  0  0  0  0  0  0  0  0
  -20.1983   36.8508  -19.2953 O   0  0  0  0  0  0  0  0  0  0  0  0
  -19.4622   39.0122  -18.5459 N   0  0  0  0  0  0  0  0  0  0  0  0
  -19.5633   40.3066  -19.1083 C   0  0  0  0  0  0  0  0  0  0  0  0
  -19.4536   41.3630  -18.4354 O   0  0  0  0  0  0  0  0  0  0  0  0
  1  2  1  0
  2  3  1  0
  3  4  1  0
  4  5  2  0
  4  6  2  0
  4  7  1  0
  7  8  1  0
  8  9  1  0
  9 10  1  0
 10 11  1  0
 11 12  1  0
 12 13  2  0
 13 14  1  0
 14 15  2  0
 15 16  1  0
 15 17  1  0
 17 18  2  0
 10 19  1  0
 19 20  1  0
  2 21  1  0
 21 22  1  0
 22 23  2  0
 22 24  1  0
 24 25  1  0
 25 26  2  0
 25  2  1  0
 20  7  1  0
 18 12  1  0
M  END
$$$$
