
     RDKit          3D

 27 28  0  0  0  0  0  0  0  0999 V2000
  -19.6433   36.2029  -24.2366 N   0  0  0  0  0  0  0  0  0  0  0  0
  -19.1600   36.0939  -22.8483 C   0  0  1  0  0  0  0  0  0  0  0  0
  -19.6428   37.3330  -22.1074 C   0  0  0  0  0  0  0  0  0  0  0  0
  -18.5348   38.3052  -21.9228 C   0  0  0  0  0  0  0  0  0  0  0  0
  -19.1197   39.7038  -21.7848 C   0  0  0  0  0  0  0  0  0  0  0  0
  -19.6690   40.0022  -20.4319 C   0  0  0  0  0  0  0  0  0  0  0  0
  -18.7523   40.8506  -19.7272 N   0  0  0  0  0  0  0  0  0  0  0  0
  -18.1808   41.9633  -20.3756 C   0  0  0  0  0  0  0  0  0  0  0  0
  -18.7582   42.6939  -21.2150 O   0  0  0  0  0  0  0  0  0  0  0  0
  -16.8630   42.3258  -20.0955 O   0  0  0  0  0  0  0  0  0  0  0  0
  -16.3066   43.5316  -20.5355 C   0  0  0  0  0  0  0  0  0  0  0  0
  -15.0514   43.7664  -19.7750 C   0  0  0  0  0  0  0  0  0  0  0  0
  -13.9668   44.3305  -20.4290 C   0  0  0  0  0  0  0  0  0  0  0  0
  -12.7954   44.5580  -19.7493 C   0  0  0  0  0  0  0  0  0  0  0  0
  -12.7117   44.2195  -18.4123 C   0  0  0  0  0  0  0  0  0  0  0  0
  -11.5235   44.4454  -17.7048 N   0  0  0  0  0  4  0  0  0  0  0  0
  -11.4772   44.1911  -16.4867 O   0  0  0  0  0  0  0  0  0  0  0  0
  -10.4134   44.9471  -18.3593 O   0  0  0  0  0  1  0  0  0  0  0  0
  -13.7968   43.6567  -17.7632 C   0  0  0  0  0  0  0  0  0  0  0  0
  -14.9731   43.4271  -18.4421 C   0  0  0  0  0  0  0  0  0  0  0  0
  -19.7100   34.9064  -22.1936 C   0  0  0  0  0  0  0  0  0  0  0  0
  -20.8058   34.9804  -21.5378 O   0  0  0  0  0  0  0  0  0  0  0  0
  -19.0736   33.6593  -22.2597 N   0  0  0  0  0  0  0  0  0  0  0  0
  -19.3762   32.4691  -21.5117 C   0  0  0  0  0  0  0  0  0  0  0  0
  -18.0273   31.8553  -21.1967 C   0  0  0  0  0  0  0  0  0  0  0  0
  -17.1208   32.3913  -22.2932 C   0  0  0  0  0  0  0  0  0  0  0  0
  -17.9610   33.3197  -23.1154 C   0  0  0  0  0  0  0  0  0  0  0  0
  2  1  1  6
  2  3  1  0
  3  4  1  0
  4  5  1  0
  5  6  1  0
  6  7  1  0
  7  8  1  0
  8  9  2  0
  8 10  1  0
 10 11  1  0
 11 12  1  0
 12 13  2  0
 13 14  1  0
 14 15  2  0
 15 16  1  0
 16 17  2  0
 16 18  1  0
 15 19  1  0
 19 20  2  0
  2 21  1  0
 21 22  2  0
 21 23  1  0
 23 24  1  0
 24 25  1  0
 25 26  1  0
 26 27  1  0
 20 12  1  0
 27 23  1  0
M  CHG  2  16   1  18  -1
M  END
$$$$
