
     RDKit          3D

 17 18  0  0  0  0  0  0  0  0999 V2000
  -20.2605   13.3055  -29.9758 C   0  0  0  0  0  0  0  0  0  0  0  0
  -18.9135   13.7118  -30.5213 C   0  0  0  0  0  0  0  0  0  0  0  0
  -18.6662   15.1726  -30.3977 C   0  0  0  0  0  0  0  0  0  0  0  0
  -19.6015   16.0504  -30.7387 N   0  0  0  0  0  0  0  0  0  0  0  0
  -19.4651   17.3828  -30.6611 C   0  0  0  0  0  0  0  0  0  0  0  0
  -20.4779   18.2948  -31.0303 N   0  0  0  0  0  0  0  0  0  0  0  0
  -18.2609   17.8236  -30.1922 N   0  0  0  0  0  0  0  0  0  0  0  0
  -17.2920   16.9915  -29.8376 C   0  0  0  0  0  0  0  0  0  0  0  0
  -16.0421   17.4595  -29.3496 N   0  0  0  0  0  0  0  0  0  0  0  0
  -17.4596   15.6054  -29.9281 C   0  0  0  0  0  0  0  0  0  0  0  0
  -16.3706   14.7282  -29.5257 C   0  0  0  0  0  0  0  0  0  0  0  0
  -15.5125   14.1735  -30.4534 C   0  0  0  0  0  0  0  0  0  0  0  0
  -14.4724   13.3367  -30.0703 C   0  0  0  0  0  0  0  0  0  0  0  0
  -14.2512   13.0236  -28.7509 C   0  0  0  0  0  0  0  0  0  0  0  0
  -12.9464   11.9697  -28.2267 Cl  0  0  0  0  0  0  0  0  0  0  0  0
  -15.1111   13.5784  -27.8114 C   0  0  0  0  0  0  0  0  0  0  0  0
  -16.1298   14.3996  -28.2027 C   0  0  0  0  0  0  0  0  0  0  0  0
  1  2  1  0
  2  3  1  0
  3  4  2  0
  4  5  1  0
  5  6  1  0
  5  7  2  0
  7  8  1  0
  8  9  1  0
  8 10  2  0
 10 11  1  0
 11 12  2  0
 12 13  1  0
 13 14  2  0
 14 15  1  0
 14 16  1  0
 16 17  2  0
 10  3  1  0
 17 11  1  0
M  END
$$$$
