
     RDKit          3D

  9  8  0  0  0  0  0  0  0  0999 V2000
  -21.2116   31.9091  -20.7573 C   0  0  0  0  0  0  0  0  0  0  0  0
  -20.7805   33.2395  -20.4634 O   0  0  0  0  0  0  0  0  0  0  0  0
  -19.8708   33.8522  -21.3045 C   0  0  0  0  0  0  0  0  0  0  0  0
  -19.4000   33.1693  -22.2665 O   0  0  0  0  0  0  0  0  0  0  0  0
  -19.4632   35.2255  -21.1028 C   0  0  0  0  0  0  0  0  0  0  0  0
  -18.3202   35.6522  -21.5772 C   0  0  0  0  0  0  0  0  0  0  0  0
  -17.8660   36.9944  -21.3031 C   0  0  0  0  0  0  0  0  0  0  0  0
  -16.8766   37.4857  -21.8812 O   0  0  0  0  0  0  0  0  0  0  0  0
  -18.5467   37.7525  -20.3758 O   0  0  0  0  0  0  0  0  0  0  0  0
  1  2  1  0
  2  3  1  0
  3  4  2  0
  3  5  1  0
  5  6  2  3
  6  7  1  0
  7  8  2  0
  7  9  1  0
M  END
$$$$
