
     RDKit          3D

 24 27  0  0  0  0  0  0  0  0999 V2000
  -16.5082   41.3667  -17.7442 O   0  0  0  0  0  0  0  0  0  0  0  0
  -16.4929   42.3148  -18.5654 C   0  0  0  0  0  0  0  0  0  0  0  0
  -15.2345   43.0197  -18.7749 C   0  0  0  0  0  0  0  0  0  0  0  0
  -15.0494   44.1998  -19.5042 C   0  0  0  0  0  0  0  0  0  0  0  0
  -13.7035   44.4853  -19.4241 C   0  0  0  0  0  0  0  0  0  0  0  0
  -13.1324   43.4839  -18.6620 C   0  0  0  0  0  0  0  0  0  0  0  0
  -14.0697   42.6537  -18.3075 O   0  0  0  0  0  0  0  0  0  0  0  0
  -17.6837   42.7014  -19.2843 N   0  0  0  0  0  0  0  0  0  0  0  0
  -17.7296   43.7114  -20.2353 N   0  0  0  0  0  0  0  0  0  0  0  0
  -18.9222   44.0314  -20.5510 C   0  0  0  0  0  0  0  0  0  0  0  0
  -19.3064   45.0557  -21.5188 C   0  0  0  0  0  0  0  0  0  0  0  0
  -18.3851   45.6235  -22.3734 C   0  0  0  0  0  0  0  0  0  0  0  0
  -18.7273   46.5857  -23.2921 C   0  0  0  0  0  0  0  0  0  0  0  0
  -20.0289   47.0108  -23.3781 C   0  0  0  0  0  0  0  0  0  0  0  0
  -20.4254   48.2447  -24.5677 Cl  0  0  0  0  0  0  0  0  0  0  0  0
  -20.9767   46.4723  -22.5478 C   0  0  0  0  0  0  0  0  0  0  0  0
  -20.6041   45.5113  -21.6386 C   0  0  0  0  0  0  0  0  0  0  0  0
  -19.8803   43.2097  -19.7882 C   0  0  0  0  0  0  0  0  0  0  0  0
  -19.0021   42.1473  -19.1694 C   0  0  0  0  0  0  0  0  0  0  0  0
  -19.1350   40.8627  -19.9069 C   0  0  0  0  0  0  0  0  0  0  0  0
  -18.1749   40.3652  -20.7530 C   0  0  0  0  0  0  0  0  0  0  0  0
  -18.6275   39.1659  -21.2624 C   0  0  0  0  0  0  0  0  0  0  0  0
  -19.8793   38.9870  -20.6833 C   0  0  0  0  0  0  0  0  0  0  0  0
  -20.1200   39.9985  -19.9086 O   0  0  0  0  0  0  0  0  0  0  0  0
  1  2  2  0
  2  3  1  0
  3  4  2  0
  4  5  1  0
  5  6  2  0
  6  7  1  0
  2  8  1  0
  8  9  1  0
  9 10  2  0
 10 11  1  0
 11 12  2  0
 12 13  1  0
 13 14  2  0
 14 15  1  0
 14 16  1  0
 16 17  2  0
 10 18  1  0
 18 19  1  0
 19 20  1  0
 20 21  2  0
 21 22  1  0
 22 23  2  0
 23 24  1  0
  7  3  1  0
 19  8  1  0
 24 20  1  0
 17 11  1  0
M  END
$$$$
