
     RDKit          3D

 29 31  0  0  0  0  0  0  0  0999 V2000
  -19.3017    0.8796  -33.6922 C   0  0  0  0  0  0  0  0  0  0  0  0
  -19.4246    0.7124  -32.1877 C   0  0  0  0  0  0  0  0  0  0  0  0
  -18.7581   -0.5619  -31.7186 C   0  0  0  0  0  0  0  0  0  0  0  0
  -18.8312    1.8138  -31.4754 N   0  0  0  0  0  0  0  0  0  0  0  0
  -17.4174    2.0168  -31.5243 C   0  0  0  0  0  0  0  0  0  0  0  0
  -16.5857    1.1032  -32.1380 C   0  0  0  0  0  0  0  0  0  0  0  0
  -15.2080    1.2714  -32.2025 C   0  0  0  0  0  0  0  0  0  0  0  0
  -14.3442    0.2979  -32.8539 C   0  0  0  0  0  0  0  0  0  0  0  0
  -13.2210   -0.2807  -32.3032 C   0  0  0  0  0  0  0  0  0  0  0  0
  -12.6924   -1.1352  -33.2279 N   0  0  0  0  0  0  0  0  0  0  0  0
  -13.4343   -1.1246  -34.3473 C   0  0  0  0  0  0  0  0  0  0  0  0
  -13.1870   -1.9078  -35.5595 C   0  0  0  0  0  0  0  0  0  0  0  0
  -12.2181   -1.6538  -36.3181 O   0  0  0  0  0  0  0  0  0  0  0  0
  -14.0284   -2.9902  -35.9358 N   0  0  0  0  0  0  0  0  0  0  0  0
  -14.3754   -3.2107  -37.3347 C   0  0  2  0  0  0  0  0  0  0  0  0
  -15.8350   -3.6043  -37.3842 C   0  0  0  0  0  0  0  0  0  0  0  0
  -16.4881   -3.0758  -38.4799 O   0  0  0  0  0  0  0  0  0  0  0  0
  -13.4891   -4.2828  -37.8434 C   0  0  0  0  0  0  0  0  0  0  0  0
  -13.1851   -5.4108  -37.0957 C   0  0  0  0  0  0  0  0  0  0  0  0
  -12.3652   -6.3984  -37.5705 C   0  0  0  0  0  0  0  0  0  0  0  0
  -11.8251   -6.2744  -38.8228 C   0  0  0  0  0  0  0  0  0  0  0  0
  -12.0944   -5.1597  -39.6253 C   0  0  0  0  0  0  0  0  0  0  0  0
  -11.3767   -5.0565  -41.2146 Cl  0  0  0  0  0  0  0  0  0  0  0  0
  -12.9269   -4.1944  -39.0976 C   0  0  0  0  0  0  0  0  0  0  0  0
  -14.4578   -0.2334  -34.1090 C   0  0  0  0  0  0  0  0  0  0  0  0
  -14.7060    2.4118  -31.6148 C   0  0  0  0  0  0  0  0  0  0  0  0
  -12.9698    2.6793  -31.6646 Cl  0  0  0  0  0  0  0  0  0  0  0  0
  -15.5206    3.3377  -30.9962 C   0  0  0  0  0  0  0  0  0  0  0  0
  -16.8426    3.1020  -30.9764 N   0  0  0  0  0  0  0  0  0  0  0  0
  1  2  1  0
  2  3  1  0
  2  4  1  0
  4  5  1  0
  5  6  2  0
  6  7  1  0
  7  8  1  0
  8  9  2  0
  9 10  1  0
 10 11  1  0
 11 12  1  0
 12 13  2  0
 12 14  1  0
 14 15  1  0
 15 16  1  1
 16 17  1  0
 15 18  1  0
 18 19  2  0
 19 20  1  0
 20 21  2  0
 21 22  1  0
 22 23  1  0
 22 24  2  0
 11 25  2  0
  7 26  2  0
 26 27  1  0
 26 28  1  0
 28 29  2  0
 29  5  1  0
 25  8  1  0
 24 18  1  0
M  END
$$$$
