
     RDKit          3D

 24 26  0  0  0  0  0  0  0  0999 V2000
  -18.3209   18.2805  -35.8555 O   0  0  0  0  0  0  0  0  0  0  0  0
  -17.0082   18.1972  -35.4774 C   0  0  0  0  0  0  0  0  0  0  0  0
  -16.7034   17.1494  -34.4425 C   0  0  0  0  0  0  0  0  0  0  0  0
  -17.6951   16.9525  -33.4468 N   0  0  0  0  0  0  0  0  0  0  0  0
  -17.6510   17.8486  -32.3417 C   0  0  0  0  0  0  0  0  0  0  0  0
  -17.9882   17.1561  -31.0289 C   0  0  0  0  0  0  0  0  0  0  0  0
  -16.9127   16.1844  -30.6756 C   0  0  0  0  0  0  0  0  0  0  0  0
  -17.3667   15.0793  -29.7556 C   0  0  0  0  0  0  0  0  0  0  0  0
  -16.2924   14.1561  -29.3435 C   0  0  0  0  0  0  0  0  0  0  0  0
  -15.4333   14.4204  -28.2996 C   0  0  0  0  0  0  0  0  0  0  0  0
  -14.4347   13.5554  -27.9198 C   0  0  0  0  0  0  0  0  0  0  0  0
  -14.2448   12.3648  -28.5775 C   0  0  0  0  0  0  0  0  0  0  0  0
  -13.2544   11.4968  -28.2069 F   0  0  0  0  0  0  0  0  0  0  0  0
  -15.0911   12.0763  -29.6258 C   0  0  0  0  0  0  0  0  0  0  0  0
  -16.0958   12.9623  -29.9972 C   0  0  0  0  0  0  0  0  0  0  0  0
  -16.4462   15.5307  -31.9555 C   0  0  0  0  0  0  0  0  0  0  0  0
  -17.5746   15.5964  -32.9524 C   0  0  0  0  0  0  0  0  0  0  0  0
  -16.0342   18.1475  -36.5943 C   0  0  0  0  0  0  0  0  0  0  0  0
  -14.6909   18.4852  -36.4036 C   0  0  0  0  0  0  0  0  0  0  0  0
  -13.7634   18.4539  -37.4088 C   0  0  0  0  0  0  0  0  0  0  0  0
  -14.1796   18.0710  -38.6624 C   0  0  0  0  0  0  0  0  0  0  0  0
  -13.0178   18.0250  -39.9444 Cl  0  0  0  0  0  0  0  0  0  0  0  0
  -15.4915   17.7292  -38.8995 C   0  0  0  0  0  0  0  0  0  0  0  0
  -16.3789   17.7750  -37.8703 C   0  0  0  0  0  0  0  0  0  0  0  0
  1  2  1  0
  2  3  1  0
  3  4  1  0
  4  5  1  0
  5  6  1  0
  6  7  1  0
  7  8  1  0
  8  9  1  0
  9 10  2  0
 10 11  1  0
 11 12  2  0
 12 13  1  0
 12 14  1  0
 14 15  2  0
  7 16  1  0
 16 17  1  0
  2 18  1  0
 18 19  2  0
 19 20  1  0
 20 21  2  0
 21 22  1  0
 21 23  1  0
 23 24  2  0
 17  4  1  0
 24 18  1  0
 15  9  1  0
M  END
$$$$
