
     RDKit          3D

 33 37  0  0  0  0  0  0  0  0999 V2000
  -42.1465   12.4015  -32.6532 C   0  0  0  0  0  0  0  0  0  0  0  0
  -41.1317   11.2805  -32.6433 C   0  0  0  0  0  0  0  0  0  0  0  0
  -39.7918   11.7486  -33.1048 C   0  0  0  0  0  0  0  0  0  0  0  0
  -40.9986   10.8053  -31.2032 C   0  0  0  0  0  0  0  0  0  0  0  0
  -41.2000    9.3308  -31.0810 C   0  0  0  0  0  0  0  0  0  0  0  0
  -42.5559    8.8531  -31.5964 C   0  0  2  0  0  0  0  0  0  0  0  0
  -43.5731    9.1304  -30.5425 C   0  0  0  0  0  0  0  0  0  0  0  0
  -44.5589    9.8725  -30.6549 O   0  0  0  0  0  0  0  0  0  0  0  0
  -43.4021    8.4974  -29.3141 O   0  0  0  0  0  0  0  0  0  0  0  0
  -42.4040    7.3963  -31.9195 C   0  0  0  0  0  0  0  0  0  0  0  0
  -43.6838    6.8859  -32.5170 C   0  0  0  0  0  0  0  0  0  0  0  0
  -43.7830    7.4472  -33.9384 C   0  0  2  0  0  0  0  0  0  0  0  0
  -42.6024    6.9557  -34.6987 C   0  0  0  0  0  0  0  0  0  0  0  0
  -43.8179    8.9415  -33.7692 C   0  0  0  0  0  0  0  0  0  0  0  0
  -44.6520    9.7128  -34.4604 C   0  0  0  0  0  0  0  0  0  0  0  0
  -45.6303    9.2207  -35.4599 C   0  0  0  0  0  0  0  0  0  0  0  0
  -45.2729    7.7746  -35.8313 C   0  0  2  0  0  0  0  0  0  0  0  0
  -46.1783    7.2229  -36.8629 C   0  0  1  0  0  0  0  0  0  0  0  0
  -47.4847    7.9616  -36.8944 C   0  0  0  0  0  0  0  0  0  0  0  0
  -45.5495    7.5383  -38.2353 C   0  0  0  0  0  0  0  0  0  0  0  0
  -46.0233    6.6813  -39.3302 C   0  0  0  0  0  0  0  0  0  0  0  0
  -47.1908    5.8492  -39.0691 C   0  0  0  0  0  0  0  0  0  0  0  0
  -48.0611    5.6679  -39.8956 O   0  0  0  0  0  0  0  0  0  0  0  0
  -47.3478    5.1840  -37.7470 C   0  0  0  0  0  0  0  0  0  0  0  0
  -46.9861    3.7093  -37.9902 C   0  0  0  0  0  0  0  0  0  0  0  0
  -48.7445    5.2031  -37.2282 C   0  0  0  0  0  0  0  0  0  0  0  0
  -46.3174    5.7316  -36.8293 C   0  0  2  0  0  0  0  0  0  0  0  0
  -46.4413    5.1772  -35.4159 C   0  0  0  0  0  0  0  0  0  0  0  0
  -45.0968    5.5101  -34.7511 C   0  0  0  0  0  0  0  0  0  0  0  0
  -45.1093    7.0090  -34.5622 C   0  0  1  0  0  0  0  0  0  0  0  0
  -46.1407    7.3059  -33.5112 C   0  0  0  0  0  0  0  0  0  0  0  0
  -42.9191    9.6374  -32.8116 C   0  0  2  0  0  0  0  0  0  0  0  0
  -41.6417   10.1046  -33.4871 C   0  0  0  0  0  0  0  0  0  0  0  0
  1  2  1  0
  2  3  1  0
  2  4  1  0
  4  5  1  0
  5  6  1  0
  6  7  1  1
  7  8  2  0
  7  9  1  0
  6 10  1  0
 10 11  1  0
 11 12  1  0
 12 13  1  6
 12 14  1  0
 14 15  2  0
 15 16  1  0
 17 16  1  1
 17 18  1  0
 18 19  1  6
 18 20  1  0
 20 21  1  0
 21 22  1  0
 22 23  2  0
 22 24  1  0
 24 25  1  0
 24 26  1  0
 24 27  1  0
 27 28  1  1
 28 29  1  0
 29 30  1  0
 30 31  1  1
 14 32  1  0
 32 33  1  6
 33  2  1  0
 32  6  1  0
 30 12  1  0
 30 17  1  0
 27 18  1  0
M  END
$$$$
