
     RDKit          3D

 21 22  0  0  0  0  0  0  0  0999 V2000
  -17.6430   34.7666  -20.9226 N   0  0  0  0  0  0  0  0  0  0  0  0
  -19.2598   35.3598  -21.1548 S   0  0  0  0  0  6  0  0  0  0  0  0
  -19.9168   34.4990  -22.1935 O   0  0  0  0  0  0  0  0  0  0  0  0
  -20.0795   35.2015  -19.9000 O   0  0  0  0  0  0  0  0  0  0  0  0
  -19.2190   37.0474  -21.6360 C   0  0  0  0  0  0  0  0  0  0  0  0
  -20.2921   37.8907  -21.5685 C   0  0  0  0  0  0  0  0  0  0  0  0
  -20.2392   39.2459  -21.9226 C   0  0  0  0  0  0  0  0  0  0  0  0
  -19.0631   39.7911  -22.3660 C   0  0  0  0  0  0  0  0  0  0  0  0
  -18.8934   41.2215  -22.7619 C   0  0  0  0  0  0  0  0  0  0  0  0
  -18.6391   42.1091  -21.6707 N   0  0  0  0  0  0  0  0  0  0  0  0
  -17.5097   42.9365  -21.5144 C   0  0  0  0  0  0  0  0  0  0  0  0
  -16.6002   42.9572  -22.3760 O   0  0  0  0  0  0  0  0  0  0  0  0
  -17.3407   43.8244  -20.3123 C   0  0  0  0  0  0  0  0  0  0  0  0
  -15.9513   44.3192  -20.3596 C   0  0  0  0  0  0  0  0  0  0  0  0
  -14.8837   43.5534  -19.9970 C   0  0  0  0  0  0  0  0  0  0  0  0
  -13.5927   44.0947  -20.0662 C   0  0  0  0  0  0  0  0  0  0  0  0
  -13.4313   45.3887  -20.4988 C   0  0  0  0  0  0  0  0  0  0  0  0
  -14.5340   46.1617  -20.8673 C   0  0  0  0  0  0  0  0  0  0  0  0
  -15.7909   45.6268  -20.7970 C   0  0  0  0  0  0  0  0  0  0  0  0
  -17.9623   38.9306  -22.4386 C   0  0  0  0  0  0  0  0  0  0  0  0
  -18.0117   37.6041  -22.0910 C   0  0  0  0  0  0  0  0  0  0  0  0
  1  2  1  0
  2  3  2  0
  2  4  2  0
  2  5  1  0
  5  6  2  0
  6  7  1  0
  7  8  2  0
  8  9  1  0
  9 10  1  0
 10 11  1  0
 11 12  2  0
 11 13  1  0
 13 14  1  0
 14 15  2  0
 15 16  1  0
 16 17  2  0
 17 18  1  0
 18 19  2  0
  8 20  1  0
 20 21  2  0
 21  5  1  0
 19 14  1  0
M  END
$$$$
