
     RDKit          3D

 29 30  0  0  0  0  0  0  0  0999 V2000
  -18.2795   41.6462  -19.1956 C   0  0  0  0  0  0  0  0  0  0  0  0
  -19.2246   40.7000  -19.4834 O   0  0  0  0  0  0  0  0  0  0  0  0
  -19.2887   40.3644  -20.8643 C   0  0  1  0  0  0  0  0  0  0  0  0
  -19.6063   41.4961  -21.6598 N   0  0  0  0  0  0  0  0  0  0  0  0
  -19.6981   41.5255  -23.0781 C   0  0  0  0  0  0  0  0  0  0  0  0
  -19.4796   40.4905  -23.7159 O   0  0  0  0  0  0  0  0  0  0  0  0
  -20.0594   42.8256  -23.7336 C   0  0  0  0  0  0  0  0  0  0  0  0
  -20.1233   42.7368  -25.1754 C   0  0  0  0  0  0  0  0  0  0  0  0
  -19.1784   42.9002  -26.1789 C   0  0  0  0  0  0  0  0  0  0  0  0
  -19.5211   42.7620  -27.4501 C   0  0  0  0  0  0  0  0  0  0  0  0
  -20.8043   42.4578  -27.7901 C   0  0  0  0  0  0  0  0  0  0  0  0
  -21.6199   42.3528  -26.1766 S   0  0  0  0  0  0  0  0  0  0  0  0
  -18.0208   39.6708  -21.1981 C   0  0  0  0  0  0  0  0  0  0  0  0
  -16.7990   39.9705  -21.2055 O   0  0  0  0  0  0  0  0  0  0  0  0
  -18.8045   38.5145  -21.5068 N   0  0  0  0  0  0  0  0  0  0  0  0
  -18.7820   37.1751  -22.0545 C   0  0  0  0  0  0  0  0  0  0  0  0
  -17.6223   36.3770  -21.6218 C   0  0  0  0  0  0  0  0  0  0  0  0
  -17.4688   35.1978  -21.9911 O   0  0  0  0  0  0  0  0  0  0  0  0
  -16.6362   36.9062  -20.7761 O   0  0  0  0  0  1  0  0  0  0  0  0
  -19.7099   36.7510  -22.8766 C   0  0  0  0  0  0  0  0  0  0  0  0
  -19.7054   35.3893  -23.4444 C   0  0  0  0  0  0  0  0  0  0  0  0
  -20.8977   34.6750  -23.0651 O   0  0  0  0  0  0  0  0  0  0  0  0
  -21.2163   34.4379  -21.7525 C   0  0  0  0  0  0  0  0  0  0  0  0
  -22.3686   33.7449  -21.3217 N   0  0  0  0  0  0  0  0  0  0  0  0
  -20.3964   34.8860  -20.8792 O   0  0  0  0  0  0  0  0  0  0  0  0
  -20.8506   37.5942  -23.3625 C   0  0  0  0  0  0  0  0  0  0  0  0
  -21.2778   38.9542  -22.2795 S   0  0  0  0  0  0  0  0  0  0  0  0
  -20.0315   39.0923  -21.0040 C   0  0  2  0  0  0  0  0  0  0  0  0
  -19.7277   39.2263  -22.7432 Na  0  0  0  0  0 15  0  0  0  0  0  0
  1  2  1  0
  2  3  1  0
  3  4  1  6
  4  5  1  0
  5  6  2  0
  5  7  1  0
  7  8  1  0
  8  9  2  0
  9 10  1  0
 10 11  2  0
 11 12  1  0
  3 13  1  0
 13 14  2  0
 13 15  1  0
 15 16  1  0
 16 17  1  0
 17 18  2  0
 17 19  1  0
 16 20  2  0
 20 21  1  0
 21 22  1  0
 22 23  1  0
 23 24  1  0
 23 25  2  0
 20 26  1  0
 26 27  1  0
 28 27  1  6
 28  3  1  0
 12  8  1  0
 28 15  1  0
M  CHG  2  19  -1  29   1
M  END
$$$$
