
     RDKit          3D

 17 18  0  0  0  0  0  0  0  0999 V2000
  -14.9670   17.4953  -34.1312 N   0  0  0  0  0  0  0  0  0  0  0  0
  -15.6675   17.8045  -32.9291 C   0  0  0  0  0  0  0  0  0  0  0  0
  -16.6192   16.6874  -32.5494 C   0  0  0  0  0  0  0  0  0  0  0  0
  -17.6711   17.1880  -31.7864 O   0  0  0  0  0  0  0  0  0  0  0  0
  -18.3694   16.0628  -31.1700 B   0  0  0  0  0  0  0  0  0  0  0  0
  -17.5853   15.1778  -30.1495 C   0  0  0  0  0  0  0  0  0  0  0  0
  -17.4129   13.8361  -30.3279 C   0  0  0  0  0  0  0  0  0  0  0  0
  -16.7201   13.0618  -29.4236 C   0  0  0  0  0  0  0  0  0  0  0  0
  -16.1936   13.6664  -28.3174 C   0  0  0  0  0  0  0  0  0  0  0  0
  -16.3582   15.0255  -28.1198 C   0  0  0  0  0  0  0  0  0  0  0  0
  -17.0535   15.7880  -29.0325 C   0  0  0  0  0  0  0  0  0  0  0  0
  -19.9096   15.8551  -31.3974 C   0  0  0  0  0  0  0  0  0  0  0  0
  -20.4884   16.0882  -32.6096 C   0  0  0  0  0  0  0  0  0  0  0  0
  -21.8414   15.8999  -32.7882 C   0  0  0  0  0  0  0  0  0  0  0  0
  -22.6152   15.4709  -31.7269 C   0  0  0  0  0  0  0  0  0  0  0  0
  -22.0527   15.2270  -30.4860 C   0  0  0  0  0  0  0  0  0  0  0  0
  -20.7060   15.4221  -30.3358 C   0  0  0  0  0  0  0  0  0  0  0  0
  1  2  1  0
  2  3  1  0
  3  4  1  0
  4  5  1  0
  5  6  1  0
  6  7  2  0
  7  8  1  0
  8  9  2  0
  9 10  1  0
 10 11  2  0
  5 12  1  0
 12 13  2  0
 13 14  1  0
 14 15  2  0
 15 16  1  0
 16 17  2  0
 11  6  1  0
 17 12  1  0
M  END
$$$$
