
     RDKit          3D

 27 29  0  0  0  0  0  0  0  0999 V2000
  -21.1090   47.3261  -19.2569 C   0  0  0  0  0  0  0  0  0  0  0  0
  -20.1896   46.6659  -20.1506 N   0  0  0  0  0  4  0  0  0  0  0  0
  -18.8290   46.9455  -19.7273 C   0  0  0  0  0  0  0  0  0  0  0  0
  -17.8921   45.9491  -20.4243 C   0  0  0  0  0  0  0  0  0  0  0  0
  -18.5753   45.6155  -21.7578 C   0  0  0  0  0  0  0  0  0  0  0  0
  -19.0873   46.9845  -22.2466 C   0  0  0  0  0  0  0  0  0  0  0  0
  -20.3543   47.2543  -21.4666 C   0  0  0  0  0  0  0  0  0  0  0  0
  -19.7576   44.7695  -21.5185 C   0  0  0  0  0  0  0  0  0  0  0  0
  -19.6051   43.4016  -21.5708 O   0  0  0  0  0  0  0  0  0  0  0  0
  -20.2878   42.5356  -22.4069 C   0  0  0  0  0  0  0  0  0  0  0  0
  -21.1130   43.1561  -23.1619 O   0  0  0  0  0  0  0  0  0  0  0  0
  -20.1232   41.0850  -22.4608 C   0  0  0  0  0  0  0  0  0  0  0  0
  -20.9874   40.5955  -23.4685 O   0  0  0  0  0  0  0  0  0  0  0  0
  -20.5105   40.3732  -21.2332 C   0  0  0  0  0  0  0  0  0  0  0  0
  -20.5422   38.9788  -21.1836 C   0  0  0  0  0  0  0  0  0  0  0  0
  -20.8929   38.2663  -20.0804 C   0  0  0  0  0  0  0  0  0  0  0  0
  -21.2421   38.9548  -18.9289 C   0  0  0  0  0  0  0  0  0  0  0  0
  -21.2193   40.3296  -18.9507 C   0  0  0  0  0  0  0  0  0  0  0  0
  -20.8569   41.0557  -20.0914 C   0  0  0  0  0  0  0  0  0  0  0  0
  -18.7264   40.7649  -22.8816 C   0  0  0  0  0  0  0  0  0  0  0  0
  -17.6420   41.1145  -22.1036 C   0  0  0  0  0  0  0  0  0  0  0  0
  -16.3412   40.8051  -22.5164 C   0  0  0  0  0  0  0  0  0  0  0  0
  -16.1280   40.1478  -23.7046 C   0  0  0  0  0  0  0  0  0  0  0  0
  -17.1982   39.7893  -24.4974 C   0  0  0  0  0  0  0  0  0  0  0  0
  -18.4496   40.1061  -24.0647 C   0  0  0  0  0  0  0  0  0  0  0  0
  -20.3868   45.2309  -20.1938 C   0  0  0  0  0  0  0  0  0  0  0  0
  -19.5165   43.2097  -21.3067 Br  0  0  0  0  0 15  0  0  0  0  0  0
  1  2  1  0
  2  3  1  0
  3  4  1  0
  4  5  1  0
  5  6  1  0
  6  7  1  0
  5  8  1  0
  8  9  1  0
  9 10  1  0
 10 11  2  0
 10 12  1  0
 12 13  1  0
 12 14  1  0
 14 15  2  0
 15 16  1  0
 16 17  2  0
 17 18  1  0
 18 19  2  0
 12 20  1  0
 20 21  2  0
 21 22  1  0
 22 23  2  0
 23 24  1  0
 24 25  2  0
  8 26  1  0
  7  2  1  0
 19 14  1  0
 25 20  1  0
 26  2  1  0
M  CHG  2   2   1  27  -1
M  END
$$$$
