
     RDKit          3D

 20 19  0  0  0  0  0  0  0  0999 V2000
  -19.8812   19.3177  -30.6717 C   0  0  0  0  0  0  0  0  0  0  0  0
  -19.4028   18.2684  -31.6540 C   0  0  0  0  0  0  0  0  0  0  0  0
  -20.1019   18.3550  -32.9516 C   0  0  0  0  0  0  0  0  0  0  0  0
  -19.8399   19.3271  -33.7009 O   0  0  0  0  0  0  0  0  0  0  0  0
  -21.0313   17.4294  -33.3964 O   0  0  0  0  0  1  0  0  0  0  0  0
  -19.4858   16.9137  -31.0483 C   0  0  0  0  0  0  0  0  0  0  0  0
  -20.6988   16.3586  -30.7116 C   0  0  0  0  0  0  0  0  0  0  0  0
  -20.7589   15.0956  -30.1483 C   0  0  0  0  0  0  0  0  0  0  0  0
  -19.6094   14.3836  -29.9195 C   0  0  0  0  0  0  0  0  0  0  0  0
  -18.3327   14.9074  -30.2471 C   0  0  0  0  0  0  0  0  0  0  0  0
  -17.2919   14.1480  -29.9891 O   0  0  0  0  0  0  0  0  0  0  0  0
  -16.0115   13.9582  -30.0011 C   0  0  0  0  0  0  0  0  0  0  0  0
  -15.0682   14.8402  -30.4619 C   0  0  0  0  0  0  0  0  0  0  0  0
  -13.7135   14.5493  -30.4348 C   0  0  0  0  0  0  0  0  0  0  0  0
  -13.2603   13.3556  -29.9409 C   0  0  0  0  0  0  0  0  0  0  0  0
  -14.1630   12.4553  -29.4751 C   0  0  0  0  0  0  0  0  0  0  0  0
  -15.5065   12.7382  -29.4995 C   0  0  0  0  0  0  0  0  0  0  0  0
  -18.3480   16.1576  -30.7991 C   0  0  0  0  0  0  0  0  0  0  0  0
  -17.5152   16.0507  -30.7298 O   0  0  0  0  0  0  0  0  0  0  0  0
  -17.7862   15.8205  -30.5437 Ca  0  0  0  0  0 15  0  0  0  0  0  0
  1  2  1  0
  2  3  1  0
  3  4  2  0
  3  5  1  0
  2  6  1  0
  6  7  2  0
  7  8  1  0
  8  9  2  0
  9 10  1  0
 10 11  1  0
 11 12  1  0
 12 13  2  0
 13 14  1  0
 14 15  2  0
 15 16  1  0
 16 17  2  0
 10 18  2  0
 18  6  1  0
 17 12  1  0
M  CHG  2   5  -1  20   2
M  END
$$$$
