
     RDKit          3D

 26 28  0  0  0  0  0  0  0  0999 V2000
  -18.4845   -2.6280  -30.7756 C   0  0  0  0  0  0  0  0  0  0  0  0
  -18.2797   -2.6856  -32.2591 C   0  0  0  0  0  0  0  0  0  0  0  0
  -18.2959   -1.3742  -32.8604 N   0  0  0  0  0  0  0  0  0  0  0  0
  -17.2090   -0.4823  -32.6953 C   0  0  0  0  0  0  0  0  0  0  0  0
  -16.1065   -0.8365  -32.0666 C   0  0  0  0  0  0  0  0  0  0  0  0
  -14.9611    0.0355  -31.8663 C   0  0  0  0  0  0  0  0  0  0  0  0
  -14.8474    0.8294  -30.7192 C   0  0  0  0  0  0  0  0  0  0  0  0
  -13.7532    1.6180  -30.4672 C   0  0  0  0  0  0  0  0  0  0  0  0
  -12.7322    1.6286  -31.3735 C   0  0  0  0  0  0  0  0  0  0  0  0
  -11.6231    2.3976  -31.1187 C   0  0  0  0  0  0  0  0  0  0  0  0
  -10.5985    2.3690  -32.0431 C   0  0  0  0  0  0  0  0  0  0  0  0
  -10.6675    1.6030  -33.1870 C   0  0  0  0  0  0  0  0  0  0  0  0
  -11.8052    0.8259  -33.4337 C   0  0  0  0  0  0  0  0  0  0  0  0
  -12.8579    0.8305  -32.5218 C   0  0  0  0  0  0  0  0  0  0  0  0
  -13.9263    0.0793  -32.7403 N   0  0  0  0  0  4  0  0  0  0  0  0
  -14.0663   -0.7096  -33.9419 C   0  0  0  0  0  0  0  0  0  0  0  0
  -13.4927   -2.0880  -33.8452 C   0  0  0  0  0  0  0  0  0  0  0  0
  -17.3205    0.8627  -33.2873 C   0  0  0  0  0  0  0  0  0  0  0  0
  -18.3689    1.2779  -33.9591 C   0  0  0  0  0  0  0  0  0  0  0  0
  -19.4862    0.3453  -34.1240 C   0  0  0  0  0  0  0  0  0  0  0  0
  -20.5816    0.8061  -34.8305 C   0  0  0  0  0  0  0  0  0  0  0  0
  -21.6826    0.0129  -35.0372 C   0  0  0  0  0  0  0  0  0  0  0  0
  -21.6570   -1.2542  -34.5171 C   0  0  0  0  0  0  0  0  0  0  0  0
  -20.5419   -1.7093  -33.8024 C   0  0  0  0  0  0  0  0  0  0  0  0
  -19.4387   -0.9471  -33.5828 C   0  0  0  0  0  0  0  0  0  0  0  0
  -16.1078   -0.2424  -32.8323 I   0  0  0  0  0 15  0  0  0  0  0  0
  1  2  1  0
  2  3  1  0
  3  4  1  0
  4  5  2  0
  5  6  1  0
  6  7  2  0
  7  8  1  0
  8  9  2  0
  9 10  1  0
 10 11  2  0
 11 12  1  0
 12 13  2  0
 13 14  1  0
 14 15  2  0
 15 16  1  0
 16 17  1  0
  4 18  1  0
 18 19  2  0
 19 20  1  0
 20 21  2  0
 21 22  1  0
 22 23  2  0
 23 24  1  0
 24 25  2  0
 25  3  1  0
 15  6  1  0
 25 20  1  0
 14  9  1  0
M  CHG  2  15   1  26  -1
M  END
$$$$
