
     RDKit          3D

 25 27  0  0  0  0  0  0  0  0999 V2000
  -19.9369   14.9806  -34.1635 C   0  0  0  0  0  0  0  0  0  0  0  0
  -19.6518   16.4516  -33.9491 C   0  0  0  0  0  0  0  0  0  0  0  0
  -18.6799   16.9585  -34.8815 N   0  0  0  0  0  4  0  0  0  0  0  0
  -19.1280   17.4775  -36.0194 C   0  0  0  0  0  0  0  0  0  0  0  0
  -20.5455   17.5339  -36.3074 C   0  0  0  0  0  0  0  0  0  0  0  0
  -21.1170   16.4660  -36.9681 C   0  0  0  0  0  0  0  0  0  0  0  0
  -22.4580   16.4170  -37.2917 C   0  0  0  0  0  0  0  0  0  0  0  0
  -23.2857   17.4840  -36.9437 C   0  0  0  0  0  0  0  0  0  0  0  0
  -22.7005   18.5415  -36.2852 C   0  0  0  0  0  0  0  0  0  0  0  0
  -21.3607   18.5749  -35.9696 C   0  0  0  0  0  0  0  0  0  0  0  0
  -18.2734   17.9937  -36.9893 C   0  0  0  0  0  0  0  0  0  0  0  0
  -18.7492   18.5241  -38.1542 C   0  0  0  0  0  0  0  0  0  0  0  0
  -17.9262   19.0372  -39.1212 C   0  0  0  0  0  0  0  0  0  0  0  0
  -18.4513   19.5926  -40.3444 N   0  0  0  0  0  0  0  0  0  0  0  0
  -16.5691   19.0077  -38.8906 C   0  0  0  0  0  0  0  0  0  0  0  0
  -16.0319   18.4792  -37.7222 C   0  0  0  0  0  0  0  0  0  0  0  0
  -16.8928   17.9735  -36.7753 C   0  0  0  0  0  0  0  0  0  0  0  0
  -16.4316   17.4313  -35.5880 C   0  0  0  0  0  0  0  0  0  0  0  0
  -15.0860   17.3944  -35.3511 C   0  0  0  0  0  0  0  0  0  0  0  0
  -14.6619   16.8333  -34.1373 C   0  0  0  0  0  0  0  0  0  0  0  0
  -15.5647   16.3433  -33.2294 C   0  0  0  0  0  0  0  0  0  0  0  0
  -15.0984   15.7848  -32.0166 N   0  0  0  0  0  0  0  0  0  0  0  0
  -16.9120   16.3861  -33.4787 C   0  0  0  0  0  0  0  0  0  0  0  0
  -17.3574   16.9309  -34.6601 C   0  0  0  0  0  0  0  0  0  0  0  0
  -18.6008   17.3044  -35.9467 Br  0  0  0  0  0 15  0  0  0  0  0  0
  1  2  1  0
  2  3  1  0
  3  4  2  0
  4  5  1  0
  5  6  2  0
  6  7  1  0
  7  8  2  0
  8  9  1  0
  9 10  2  0
  4 11  1  0
 11 12  2  0
 12 13  1  0
 13 14  1  0
 13 15  2  0
 15 16  1  0
 16 17  2  0
 17 18  1  0
 18 19  2  0
 19 20  1  0
 20 21  2  0
 21 22  1  0
 21 23  1  0
 23 24  2  0
 24  3  1  0
 10  5  1  0
 17 11  1  0
 24 18  1  0
M  CHG  2   3   1  25  -1
M  END
$$$$
