
     RDKit          3D

 25 28  0  0  0  0  0  0  0  0999 V2000
  -17.7879   39.4470  -19.8268 N   0  0  0  0  0  0  0  0  0  0  0  0
  -18.0642   40.6795  -20.4693 C   0  0  0  0  0  0  0  0  0  0  0  0
  -17.7109   41.8707  -19.9583 N   0  0  0  0  0  0  0  0  0  0  0  0
  -17.9839   43.0293  -20.5844 C   0  0  0  0  0  0  0  0  0  0  0  0
  -18.6315   42.9962  -21.7607 N   0  0  0  0  0  0  0  0  0  0  0  0
  -19.0259   41.8550  -22.3525 C   0  0  0  0  0  0  0  0  0  0  0  0
  -18.7258   40.6743  -21.6742 C   0  0  0  0  0  0  0  0  0  0  0  0
  -19.2113   39.6697  -22.4484 C   0  0  0  0  0  0  0  0  0  0  0  0
  -19.1252   38.2328  -22.1382 C   0  0  0  0  0  0  0  0  0  0  0  0
  -20.3706   37.7602  -21.6599 O   0  0  0  0  0  0  0  0  0  0  0  0
  -20.5515   36.3639  -21.6519 C   0  0  0  0  0  0  0  0  0  0  0  0
  -21.7768   35.8301  -21.3301 C   0  0  0  0  0  0  0  0  0  0  0  0
  -21.9464   34.4517  -21.3247 C   0  0  0  0  0  0  0  0  0  0  0  0
  -20.9087   33.6181  -21.6358 C   0  0  0  0  0  0  0  0  0  0  0  0
  -19.6622   34.1189  -21.9643 C   0  0  0  0  0  0  0  0  0  0  0  0
  -18.3519   33.0271  -22.3588 Cl  0  0  0  0  0  0  0  0  0  0  0  0
  -19.5381   35.4917  -21.9574 C   0  0  0  0  0  0  0  0  0  0  0  0
  -19.7662   40.2337  -23.5232 N   0  0  0  0  0  0  0  0  0  0  0  0
  -19.6739   41.5521  -23.5009 N   0  0  0  0  0  0  0  0  0  0  0  0
  -20.1550   42.5089  -24.4886 C   0  0  0  0  0  0  0  0  0  0  0  0
  -19.1428   43.5872  -24.7705 C   0  0  0  0  0  0  0  0  0  0  0  0
  -19.6403   44.4101  -25.9352 C   0  0  0  0  0  0  0  0  0  0  0  0
  -20.9961   44.6642  -25.8706 O   0  0  0  0  0  0  0  0  0  0  0  0
  -21.4908   44.5898  -24.5716 C   0  0  0  0  0  0  0  0  0  0  0  0
  -21.4180   43.2010  -24.0041 C   0  0  0  0  0  0  0  0  0  0  0  0
  1  2  1  0
  2  3  2  0
  3  4  1  0
  4  5  2  0
  5  6  1  0
  6  7  2  0
  7  8  1  0
  8  9  1  0
  9 10  1  0
 10 11  1  0
 11 12  2  0
 12 13  1  0
 13 14  2  0
 14 15  1  0
 15 16  1  0
 15 17  2  0
  8 18  2  0
 18 19  1  0
 19 20  1  0
 20 21  1  0
 21 22  1  0
 22 23  1  0
 23 24  1  0
 24 25  1  0
  7  2  1  0
 17 11  1  0
 25 20  1  0
 19  6  1  0
M  END
$$$$
