
     RDKit          3D

 16 17  0  0  0  0  0  0  0  0999 V2000
  -25.1653   35.1522  -28.9273 O   0  0  0  0  0  0  0  0  0  0  0  0
  -26.1532   35.8317  -28.5150 C   0  0  0  0  0  0  0  0  0  0  0  0
  -27.2209   35.9078  -29.3626 O   0  0  0  0  0  0  0  0  0  0  0  0
  -26.0418   36.4447  -27.2001 C   0  0  0  0  0  0  0  0  0  0  0  0
  -27.1801   37.0253  -26.6472 C   0  0  0  0  0  0  0  0  0  0  0  0
  -27.1302   37.6562  -25.4409 C   0  0  0  0  0  0  0  0  0  0  0  0
  -25.9722   37.7602  -24.7013 C   0  0  0  0  0  0  0  0  0  0  0  0
  -24.8523   37.1841  -25.2524 C   0  0  0  0  0  0  0  0  0  0  0  0
  -24.8829   36.5323  -26.4869 C   0  0  0  0  0  0  0  0  0  0  0  0
  -23.6826   35.9660  -26.9836 N   0  0  0  0  0  0  0  0  0  0  0  0
  -22.3913   36.4589  -26.6977 C   0  0  0  0  0  0  0  0  0  0  0  0
  -22.1310   37.7922  -26.8945 C   0  0  0  0  0  0  0  0  0  0  0  0
  -20.9065   38.3271  -26.6161 C   0  0  0  0  0  0  0  0  0  0  0  0
  -19.9220   37.4922  -26.1268 C   0  0  0  0  0  0  0  0  0  0  0  0
  -20.1238   36.1545  -25.9104 C   0  0  0  0  0  0  0  0  0  0  0  0
  -21.3703   35.6404  -26.2002 C   0  0  0  0  0  0  0  0  0  0  0  0
  1  2  2  0
  2  3  1  0
  2  4  1  0
  4  5  2  0
  5  6  1  0
  6  7  2  0
  7  8  1  0
  8  9  2  0
  9 10  1  0
 10 11  1  0
 11 12  2  0
 12 13  1  0
 13 14  2  0
 14 15  1  0
 15 16  2  0
  9  4  1  0
 16 11  1  0
M  END
$$$$
