
     RDKit          3D

 33 36  0  0  0  0  0  0  0  0999 V2000
  -16.5170   42.9517  -19.5468 Br  0  0  0  0  0  0  0  0  0  0  0  0
  -20.8716   41.8711  -23.0454 N   0  0  0  0  0  0  0  0  0  0  0  0
  -19.6604   42.3493  -22.4820 C   0  0  0  0  0  0  0  0  0  0  0  0
  -19.0824   43.3030  -23.0419 O   0  0  0  0  0  0  0  0  0  0  0  0
  -19.0591   41.7427  -21.2386 C   0  0  0  0  0  0  0  0  0  0  0  0
  -18.7658   40.3495  -21.5933 C   0  0  0  0  0  0  0  0  0  0  0  0
  -17.5131   39.9469  -21.9685 C   0  0  0  0  0  0  0  0  0  0  0  0
  -17.2311   38.6226  -22.2986 C   0  0  0  0  0  0  0  0  0  0  0  0
  -18.2264   37.6932  -22.2494 C   0  0  0  0  0  0  0  0  0  0  0  0
  -19.4867   38.0661  -21.8786 C   0  0  0  0  0  0  0  0  0  0  0  0
  -19.7622   39.4012  -21.5478 C   0  0  0  0  0  0  0  0  0  0  0  0
  -20.1197   41.8326  -20.1995 C   0  0  0  0  0  0  0  0  0  0  0  0
  -20.0976   40.9403  -19.1586 C   0  0  0  0  0  0  0  0  0  0  0  0
  -21.0818   41.0160  -18.1657 C   0  0  0  0  0  0  0  0  0  0  0  0
  -22.0784   41.9738  -18.2136 C   0  0  0  0  0  0  0  0  0  0  0  0
  -22.0905   42.8626  -19.2622 C   0  0  0  0  0  0  0  0  0  0  0  0
  -21.1194   42.7795  -20.2312 C   0  0  0  0  0  0  0  0  0  0  0  0
  -17.8603   42.5295  -20.8612 C   0  0  2  0  0  0  0  0  0  0  0  0
  -17.1219   42.0832  -19.6470 C   0  0  0  0  0  0  0  0  0  0  0  0
  -16.2943   43.3531  -19.3240 C   0  0  0  0  0  0  0  0  0  0  0  0
  -17.0318   44.4591  -19.7991 N   0  0  0  0  0  0  0  0  0  0  0  0
  -16.4167   45.4100  -20.6296 C   0  0  0  0  0  0  0  0  0  0  0  0
  -15.4244   46.2753  -19.9541 C   0  0  0  0  0  0  0  0  0  0  0  0
  -14.2883   45.5466  -19.3603 C   0  0  0  0  0  0  0  0  0  0  0  0
  -13.1821   45.1842  -20.1407 C   0  0  0  0  0  0  0  0  0  0  0  0
  -12.1112   44.5483  -19.5575 C   0  0  0  0  0  0  0  0  0  0  0  0
  -12.0511   44.2348  -18.2181 C   0  0  0  0  0  0  0  0  0  0  0  0
  -13.1344   44.5855  -17.4354 C   0  0  0  0  0  0  0  0  0  0  0  0
  -14.2088   45.2215  -18.0127 C   0  0  0  0  0  0  0  0  0  0  0  0
  -12.8208   44.1382  -16.0534 C   0  0  0  0  0  0  0  0  0  0  0  0
  -11.2852   44.1448  -16.0804 C   0  0  0  0  0  0  0  0  0  0  0  0
  -11.0931   43.6040  -17.3992 O   0  0  0  0  0  0  0  0  0  0  0  0
  -18.2800   43.9328  -20.3832 C   0  0  0  0  0  0  0  0  0  0  0  0
  2  3  1  0
  3  4  2  0
  3  5  1  0
  5  6  1  0
  6  7  2  0
  7  8  1  0
  8  9  2  0
  9 10  1  0
 10 11  2  0
  5 12  1  0
 12 13  2  0
 13 14  1  0
 14 15  2  0
 15 16  1  0
 16 17  2  0
 18  5  1  1
 18 19  1  0
 19 20  1  0
 20 21  1  0
 21 22  1  0
 22 23  1  0
 23 24  1  0
 24 25  2  0
 25 26  1  0
 26 27  2  0
 27 28  1  0
 28 29  2  0
 28 30  1  0
 30 31  1  0
 31 32  1  0
 21 33  1  0
 11  6  1  0
 17 12  1  0
 33 18  1  0
 29 24  1  0
 32 27  1  0
M  END
$$$$
