
     RDKit          3D

 33 35  0  0  0  0  0  0  0  0999 V2000
  -20.0098   40.7962  -23.1727 C   0  0  0  0  0  0  0  0  0  0  0  0
  -20.3432   40.6019  -21.7984 O   0  0  0  0  0  0  0  0  0  0  0  0
  -19.3416   40.5795  -20.8197 C   0  0  0  0  0  0  0  0  0  0  0  0
  -19.0194   41.8358  -20.2931 C   0  0  0  0  0  0  0  0  0  0  0  0
  -19.7113   42.9898  -20.7516 N   0  0  0  0  0  0  0  0  0  0  0  0
  -18.9925   44.2005  -20.9284 C   0  0  0  0  0  0  0  0  0  0  0  0
  -18.1581   44.3417  -22.0385 C   0  0  0  0  0  0  0  0  0  0  0  0
  -17.4559   45.5073  -22.2076 C   0  0  0  0  0  0  0  0  0  0  0  0
  -17.5518   46.5464  -21.3083 C   0  0  0  0  0  0  0  0  0  0  0  0
  -16.6415   48.0454  -21.5336 S   0  0  0  0  0  6  0  0  0  0  0  0
  -14.9268   47.7308  -21.2009 C   0  0  0  0  0  0  0  0  0  0  0  0
  -16.7480   48.4250  -22.9903 O   0  0  0  0  0  0  0  0  0  0  0  0
  -17.1998   49.1512  -20.7203 O   0  0  0  0  0  0  0  0  0  0  0  0
  -18.3651   46.3587  -20.2622 N   0  0  0  0  0  0  0  0  0  0  0  0
  -19.0785   45.2474  -20.0367 C   0  0  0  0  0  0  0  0  0  0  0  0
  -19.9454   45.1525  -18.8169 C   0  0  0  0  0  0  0  0  0  0  0  0
  -18.0681   41.8981  -19.3562 N   0  0  0  0  0  0  0  0  0  0  0  0
  -17.4143   40.8422  -18.8984 C   0  0  0  0  0  0  0  0  0  0  0  0
  -17.7194   39.6502  -19.3961 N   0  0  0  0  0  0  0  0  0  0  0  0
  -18.6932   39.4779  -20.3724 C   0  0  0  0  0  0  0  0  0  0  0  0
  -18.9281   38.2296  -20.8093 O   0  0  0  0  0  0  0  0  0  0  0  0
  -18.3505   37.4868  -21.7981 C   0  0  0  0  0  0  0  0  0  0  0  0
  -17.6486   36.2596  -21.2369 C   0  0  0  0  0  0  0  0  0  0  0  0
  -18.5249   35.0266  -21.2261 C   0  0  0  0  0  0  0  0  0  0  0  0
  -19.1510   34.8115  -22.4955 N   0  0  0  0  0  0  0  0  0  0  0  0
  -19.8809   33.6557  -22.7660 C   0  0  0  0  0  0  0  0  0  0  0  0
  -20.6864   33.6244  -23.7557 O   0  0  0  0  0  0  0  0  0  0  0  0
  -19.7919   32.4960  -22.0098 O   0  0  0  0  0  0  0  0  0  0  0  0
  -19.5270   31.2572  -22.6369 C   0  0  0  0  0  0  0  0  0  0  0  0
  -18.2916   31.3311  -23.5168 C   0  0  0  0  0  0  0  0  0  0  0  0
  -19.3679   30.2070  -21.5572 C   0  0  0  0  0  0  0  0  0  0  0  0
  -19.0021   35.8431  -23.4892 C   0  0  0  0  0  0  0  0  0  0  0  0
  -19.4329   37.1225  -22.8119 C   0  0  0  0  0  0  0  0  0  0  0  0
  1  2  1  0
  2  3  1  0
  3  4  2  0
  4  5  1  0
  5  6  1  0
  6  7  2  0
  7  8  1  0
  8  9  2  0
  9 10  1  0
 10 11  1  0
 10 12  2  0
 10 13  2  0
  9 14  1  0
 14 15  2  0
 15 16  1  0
  4 17  1  0
 17 18  2  0
 18 19  1  0
 19 20  2  0
 20 21  1  0
 21 22  1  0
 22 23  1  0
 23 24  1  0
 24 25  1  0
 25 26  1  0
 26 27  2  0
 26 28  1  0
 28 29  1  0
 29 30  1  0
 29 31  1  0
 25 32  1  0
 32 33  1  0
 20  3  1  0
 33 22  1  0
 15  6  1  0
M  END
$$$$
