
     RDKit          3D

 28 30  0  0  0  0  0  0  0  0999 V2000
  -11.0215   18.3855  -47.6749 C   0  0  0  0  0  0  0  0  0  0  0  0
  -10.1244   18.3727  -46.5033 N   0  0  0  0  0  0  0  0  0  0  0  0
  -10.6512   18.2518  -45.2009 C   0  0  0  0  0  0  0  0  0  0  0  0
  -11.8879   18.2143  -45.0537 O   0  0  0  0  0  0  0  0  0  0  0  0
   -9.7846   18.1721  -44.0517 C   0  0  0  0  0  0  0  0  0  0  0  0
   -8.5084   17.6518  -44.0653 C   0  0  0  0  0  0  0  0  0  0  0  0
   -7.6850   17.5780  -42.9627 C   0  0  0  0  0  0  0  0  0  0  0  0
   -6.0811   16.9127  -43.0284 Cl  0  0  0  0  0  0  0  0  0  0  0  0
   -8.1741   18.0594  -41.7610 C   0  0  0  0  0  0  0  0  0  0  0  0
   -9.4427   18.5885  -41.6973 C   0  0  0  0  0  0  0  0  0  0  0  0
   -9.9708   19.1045  -40.4156 C   0  0  0  0  0  0  0  0  0  0  0  0
  -10.2357   18.6448  -42.8216 C   0  0  0  0  0  0  0  0  0  0  0  0
  -11.5587   19.1909  -42.7796 N   0  0  0  0  0  0  0  0  0  0  0  0
  -12.6067   18.6120  -42.0425 C   0  0  0  0  0  0  0  0  0  0  0  0
  -12.2799   17.5877  -41.3629 O   0  0  0  0  0  0  0  0  0  0  0  0
  -13.9837   19.0603  -41.9865 C   0  0  0  0  0  0  0  0  0  0  0  0
  -14.5475   19.9249  -42.9125 C   0  0  0  0  0  0  0  0  0  0  0  0
  -15.8633   20.1564  -42.5847 C   0  0  0  0  0  0  0  0  0  0  0  0
  -17.0293   21.2847  -43.5805 Br  0  0  0  0  0  0  0  0  0  0  0  0
  -16.0791   19.4391  -41.4784 N   0  0  0  0  0  0  0  0  0  0  0  0
  -14.9583   18.7845  -41.1203 N   0  0  0  0  0  0  0  0  0  0  0  0
  -14.8864   17.9417  -39.9816 C   0  0  0  0  0  0  0  0  0  0  0  0
  -14.6846   18.4670  -38.7656 N   0  0  0  0  0  0  0  0  0  0  0  0
  -14.5964   17.6924  -37.6536 C   0  0  0  0  0  0  0  0  0  0  0  0
  -14.7138   16.3095  -37.7390 C   0  0  0  0  0  0  0  0  0  0  0  0
  -14.9213   15.7442  -38.9757 C   0  0  0  0  0  0  0  0  0  0  0  0
  -15.0051   16.5720  -40.0847 C   0  0  0  0  0  0  0  0  0  0  0  0
  -15.2700   15.8006  -41.6337 Cl  0  0  0  0  0  0  0  0  0  0  0  0
  1  2  1  0
  2  3  1  0
  3  4  2  0
  3  5  1  0
  5  6  2  0
  6  7  1  0
  7  8  1  0
  7  9  2  0
  9 10  1  0
 10 11  1  0
 10 12  2  0
 12 13  1  0
 13 14  1  0
 14 15  2  0
 14 16  1  0
 16 17  2  0
 17 18  1  0
 18 19  1  0
 18 20  2  0
 20 21  1  0
 21 22  1  0
 22 23  2  0
 23 24  1  0
 24 25  2  0
 25 26  1  0
 26 27  2  0
 27 28  1  0
 12  5  1  0
 21 16  1  0
 27 22  1  0
M  END
$$$$
