
     RDKit          3D

 33 36  0  0  0  0  0  0  0  0999 V2000
  -15.8528   45.5843  -21.5077 C   0  0  0  0  0  0  0  0  0  0  0  0
  -15.3222   44.3408  -20.9844 N   0  0  0  0  0  0  0  0  0  0  0  0
  -14.1744   44.4074  -20.1195 C   0  0  0  0  0  0  0  0  0  0  0  0
  -14.5884   44.6104  -18.6855 C   0  0  0  0  0  0  0  0  0  0  0  0
  -15.8985   44.9352  -18.4018 C   0  0  0  0  0  0  0  0  0  0  0  0
  -16.2745   45.1239  -17.0741 C   0  0  0  0  0  0  0  0  0  0  0  0
  -15.3596   44.9904  -16.0540 C   0  0  0  0  0  0  0  0  0  0  0  0
  -14.0459   44.6662  -16.3198 C   0  0  0  0  0  0  0  0  0  0  0  0
  -13.0562   44.5195  -15.2579 C   0  0  0  0  0  0  0  0  0  0  0  0
  -11.9207   43.7487  -15.3909 C   0  0  0  0  0  0  0  0  0  0  0  0
  -10.9888   43.6182  -14.3745 C   0  0  0  0  0  0  0  0  0  0  0  0
  -11.1777   44.2582  -13.2047 N   0  0  0  0  0  0  0  0  0  0  0  0
  -12.2701   45.0120  -13.0491 C   0  0  0  0  0  0  0  0  0  0  0  0
  -13.2305   45.1666  -14.0515 C   0  0  0  0  0  0  0  0  0  0  0  0
  -13.7025   44.4840  -17.6607 C   0  0  0  0  0  0  0  0  0  0  0  0
  -15.9621   43.1296  -21.3506 C   0  0  0  0  0  0  0  0  0  0  0  0
  -15.4643   42.3322  -22.1796 O   0  0  0  0  0  0  0  0  0  0  0  0
  -17.1793   42.8055  -20.7795 O   0  0  0  0  0  0  0  0  0  0  0  0
  -17.9289   41.6980  -21.1091 C   0  0  0  0  0  0  0  0  0  0  0  0
  -18.7700   41.6371  -22.1900 C   0  0  0  0  0  0  0  0  0  0  0  0
  -19.4921   40.4979  -22.4643 C   0  0  0  0  0  0  0  0  0  0  0  0
  -19.3730   39.4057  -21.6492 C   0  0  0  0  0  0  0  0  0  0  0  0
  -20.1325   38.1932  -21.9284 C   0  0  0  0  0  0  0  0  0  0  0  0
  -21.5109   38.1871  -21.9544 C   0  0  0  0  0  0  0  0  0  0  0  0
  -22.1984   37.0217  -22.2222 C   0  0  0  0  0  0  0  0  0  0  0  0
  -21.5303   35.8359  -22.4703 C   0  0  0  0  0  0  0  0  0  0  0  0
  -22.2645   34.5990  -22.7542 C   0  0  0  0  0  0  0  0  0  0  0  0
  -23.6459   34.5712  -22.9962 N   0  0  0  0  0  0  0  0  0  0  0  0
  -21.6341   33.5210  -22.7824 O   0  0  0  0  0  0  0  0  0  0  0  0
  -20.1570   35.8509  -22.4425 C   0  0  0  0  0  0  0  0  0  0  0  0
  -19.4532   37.0233  -22.1728 C   0  0  0  0  0  0  0  0  0  0  0  0
  -18.5376   39.4254  -20.5510 C   0  0  0  0  0  0  0  0  0  0  0  0
  -17.8292   40.5833  -20.3062 C   0  0  0  0  0  0  0  0  0  0  0  0
  1  2  1  0
  2  3  1  0
  3  4  1  0
  4  5  2  0
  5  6  1  0
  6  7  2  0
  7  8  1  0
  8  9  1  0
  9 10  2  0
 10 11  1  0
 11 12  2  0
 12 13  1  0
 13 14  2  0
  8 15  2  0
  2 16  1  0
 16 17  2  0
 16 18  1  0
 18 19  1  0
 19 20  2  0
 20 21  1  0
 21 22  2  0
 22 23  1  0
 23 24  2  0
 24 25  1  0
 25 26  2  0
 26 27  1  0
 27 28  1  0
 27 29  2  0
 26 30  1  0
 30 31  2  0
 22 32  1  0
 32 33  2  0
 15  4  1  0
 33 19  1  0
 14  9  1  0
 31 23  1  0
M  END
$$$$
