
     RDKit          3D

 34 38  0  0  0  0  0  0  0  0999 V2000
  -19.9694   35.2245  -24.6635 C   0  0  0  0  0  0  0  0  0  0  0  0
  -20.6939   35.0535  -23.3271 C   0  0  0  0  0  0  0  0  0  0  0  0
  -20.1750   33.7871  -22.6870 C   0  0  0  0  0  0  0  0  0  0  0  0
  -20.4318   36.2121  -22.5026 N   0  0  0  0  0  0  0  0  0  0  0  0
  -19.3461   37.0571  -22.8153 C   0  0  0  0  0  0  0  0  0  0  0  0
  -18.7273   36.8845  -23.8917 O   0  0  0  0  0  0  0  0  0  0  0  0
  -18.8974   38.1478  -21.9257 C   0  0  0  0  0  0  0  0  0  0  0  0
  -17.7609   38.8187  -22.4766 O   0  0  0  0  0  0  0  0  0  0  0  0
  -17.6869   40.1837  -22.5526 C   0  0  0  0  0  0  0  0  0  0  0  0
  -16.5704   40.8512  -22.1155 C   0  0  0  0  0  0  0  0  0  0  0  0
  -16.4962   42.2325  -22.1935 C   0  0  0  0  0  0  0  0  0  0  0  0
  -17.5607   42.9606  -22.7194 C   0  0  0  0  0  0  0  0  0  0  0  0
  -18.6731   42.2982  -23.1551 C   0  0  0  0  0  0  0  0  0  0  0  0
  -19.8343   43.0092  -23.7250 C   0  0  0  0  0  0  0  0  0  0  0  0
  -21.0377   42.4330  -23.8130 N   0  0  0  0  0  0  0  0  0  0  0  0
  -22.1470   43.0025  -24.3141 C   0  0  0  0  0  0  0  0  0  0  0  0
  -23.3848   42.3412  -24.3745 N   0  0  0  0  0  0  0  0  0  0  0  0
  -23.5747   41.0312  -23.9011 C   0  0  0  0  0  0  0  0  0  0  0  0
  -24.6238   40.2213  -24.2233 C   0  0  0  0  0  0  0  0  0  0  0  0
  -24.7667   38.9325  -23.7074 C   0  0  0  0  0  0  0  0  0  0  0  0
  -23.8480   38.4271  -22.8488 C   0  0  0  0  0  0  0  0  0  0  0  0
  -23.7163   37.2472  -22.2004 N   0  0  0  0  0  0  0  0  0  0  0  0
  -22.6185   37.2623  -21.4686 N   0  0  0  0  0  0  0  0  0  0  0  0
  -22.0180   38.4434  -21.6251 C   0  0  0  0  0  0  0  0  0  0  0  0
  -22.7775   39.2076  -22.4990 C   0  0  0  0  0  0  0  0  0  0  0  0
  -22.6395   40.4796  -23.0101 C   0  0  0  0  0  0  0  0  0  0  0  0
  -22.0064   44.3170  -24.7799 C   0  0  0  0  0  0  0  0  0  0  0  0
  -23.0482   45.0235  -25.3141 C   0  0  0  0  0  0  0  0  0  0  0  0
  -22.8918   46.3355  -25.7731 C   0  0  0  0  0  0  0  0  0  0  0  0
  -21.6688   46.9607  -25.6988 C   0  0  0  0  0  0  0  0  0  0  0  0
  -20.6165   46.2541  -25.1619 C   0  0  0  0  0  0  0  0  0  0  0  0
  -20.7769   44.9436  -24.7047 C   0  0  0  0  0  0  0  0  0  0  0  0
  -19.7291   44.2663  -24.1782 N   0  0  0  0  0  0  0  0  0  0  0  0
  -18.7348   40.9217  -23.0719 C   0  0  0  0  0  0  0  0  0  0  0  0
  1  2  1  0
  2  3  1  0
  2  4  1  0
  4  5  1  0
  5  6  2  0
  5  7  1  0
  7  8  1  0
  8  9  1  0
  9 10  2  0
 10 11  1  0
 11 12  2  0
 12 13  1  0
 13 14  1  0
 14 15  2  0
 15 16  1  0
 16 17  1  0
 17 18  1  0
 18 19  2  0
 19 20  1  0
 20 21  2  0
 21 22  1  0
 22 23  1  0
 23 24  2  0
 24 25  1  0
 25 26  2  0
 16 27  2  0
 27 28  1  0
 28 29  2  0
 29 30  1  0
 30 31  2  0
 31 32  1  0
 32 33  2  0
 13 34  2  0
 34  9  1  0
 33 14  1  0
 26 18  1  0
 32 27  1  0
 25 21  1  0
M  END
$$$$
