
     RDKit          3D

 38 41  0  0  0  0  0  0  0  0999 V2000
  -24.6422   15.7160  -36.2522 C   0  0  0  0  0  0  0  0  0  0  0  0
  -23.7484   16.2381  -37.3638 C   0  0  0  0  0  0  0  0  0  0  0  0
  -23.4624   17.6853  -37.1147 C   0  0  0  0  0  0  0  0  0  0  0  0
  -22.6253   18.2377  -38.2405 C   0  0  0  0  0  0  0  0  0  0  0  0
  -22.2368   19.6515  -38.0507 C   0  0  0  0  0  0  0  0  0  0  0  0
  -23.0830   20.6370  -37.6235 N   0  0  0  0  0  0  0  0  0  0  0  0
  -22.4291   21.7998  -37.5346 C   0  0  0  0  0  0  0  0  0  0  0  0
  -23.0175   23.0764  -37.1085 C   0  0  0  0  0  0  0  0  0  0  0  0
  -22.4100   24.2712  -37.3862 C   0  0  0  0  0  0  0  0  0  0  0  0
  -22.9608   25.4598  -36.9887 C   0  0  0  0  0  0  0  0  0  0  0  0
  -24.1774   25.5354  -36.2746 C   0  0  0  0  0  0  0  0  0  0  0  0
  -24.6237   26.7755  -35.9305 O   0  0  0  0  0  0  0  0  0  0  0  0
  -25.8655   27.3306  -36.1212 C   0  0  0  0  0  0  0  0  0  0  0  0
  -26.5492   27.6335  -34.8363 C   0  0  0  0  0  0  0  0  0  0  0  0
  -27.1401   29.0285  -34.7941 C   0  0  0  0  0  0  0  0  0  0  0  0
  -28.3328   29.1524  -35.6078 N   0  0  0  0  0  0  0  0  0  0  0  0
  -29.2756   28.0797  -35.3517 C   0  0  0  0  0  0  0  0  0  0  0  0
  -29.9644   27.7594  -36.6603 C   0  0  0  0  0  0  0  0  0  0  0  0
  -29.0059   30.3647  -35.1041 C   0  0  0  0  0  0  0  0  0  0  0  0
  -28.1946   31.0536  -34.0373 C   0  0  0  0  0  0  0  0  0  0  0  0
  -24.7674   24.3312  -36.0062 C   0  0  0  0  0  0  0  0  0  0  0  0
  -24.2012   23.1149  -36.4149 C   0  0  0  0  0  0  0  0  0  0  0  0
  -21.1405   21.5515  -37.9121 C   0  0  0  0  0  0  0  0  0  0  0  0
  -21.0331   20.2235  -38.2279 N   0  0  0  0  0  0  0  0  0  0  0  0
  -19.8352   19.5675  -38.6560 C   0  0  0  0  0  0  0  0  0  0  0  0
  -19.0842   18.8660  -37.7389 C   0  0  0  0  0  0  0  0  0  0  0  0
  -17.9108   18.2096  -38.1051 C   0  0  0  0  0  0  0  0  0  0  0  0
  -17.4683   18.2475  -39.4112 C   0  0  0  0  0  0  0  0  0  0  0  0
  -16.2852   17.5888  -39.7935 O   0  0  0  0  0  0  0  0  0  0  0  0
  -15.0425   18.0521  -39.3828 C   0  0  0  0  0  0  0  0  0  0  0  0
  -14.6185   17.7217  -38.1208 C   0  0  0  0  0  0  0  0  0  0  0  0
  -13.4056   18.1504  -37.6670 C   0  0  0  0  0  0  0  0  0  0  0  0
  -12.5809   18.9237  -38.4646 C   0  0  0  0  0  0  0  0  0  0  0  0
  -11.0223   19.4737  -37.8816 Cl  0  0  0  0  0  0  0  0  0  0  0  0
  -12.9811   19.2706  -39.7359 C   0  0  0  0  0  0  0  0  0  0  0  0
  -14.2227   18.8150  -40.1621 C   0  0  0  0  0  0  0  0  0  0  0  0
  -18.2231   18.9494  -40.3218 C   0  0  0  0  0  0  0  0  0  0  0  0
  -19.3831   19.5977  -39.9577 C   0  0  0  0  0  0  0  0  0  0  0  0
  1  2  1  0
  2  3  1  0
  3  4  1  0
  4  5  1  0
  5  6  2  0
  6  7  1  0
  7  8  1  0
  8  9  2  0
  9 10  1  0
 10 11  2  0
 11 12  1  0
 12 13  1  0
 13 14  1  0
 14 15  1  0
 15 16  1  0
 16 17  1  0
 17 18  1  0
 16 19  1  0
 19 20  1  0
 11 21  1  0
 21 22  2  0
  7 23  2  0
 23 24  1  0
 24 25  1  0
 25 26  2  0
 26 27  1  0
 27 28  2  0
 28 29  1  0
 29 30  1  0
 30 31  2  0
 31 32  1  0
 32 33  2  0
 33 34  1  0
 33 35  1  0
 35 36  2  0
 28 37  1  0
 37 38  2  0
 24  5  1  0
 38 25  1  0
 22  8  1  0
 36 30  1  0
M  END
$$$$
