
     RDKit          3D

 40 43  0  0  0  0  0  0  0  0999 V2000
  -33.3578   10.2890  -18.2822 C   0  0  0  0  0  0  0  0  0  0  0  0
  -33.7948   11.3648  -19.2891 C   0  0  0  0  0  0  0  0  0  0  0  0
  -32.8727   12.0856  -19.7798 O   0  0  0  0  0  0  0  0  0  0  0  0
  -31.9426   12.8125  -20.2757 C   0  0  0  0  0  0  0  0  0  0  0  0
  -31.5277   14.0676  -19.8000 C   0  0  0  0  0  0  0  0  0  0  0  0
  -30.5177   14.7982  -20.3564 C   0  0  0  0  0  0  0  0  0  0  0  0
  -30.1679   16.0175  -19.8921 N   0  0  0  0  0  0  0  0  0  0  0  0
  -29.2035   16.7729  -20.4501 C   0  0  0  0  0  0  0  0  0  0  0  0
  -28.5201   16.3180  -21.5423 C   0  0  0  0  0  0  0  0  0  0  0  0
  -27.5349   17.0692  -22.1973 C   0  0  0  0  0  0  0  0  0  0  0  0
  -26.6713   17.7066  -22.7602 N   0  0  0  0  0  0  0  0  0  0  0  0
  -28.8589   15.0203  -22.0630 C   0  0  0  0  0  0  0  0  0  0  0  0
  -28.1355   14.6177  -23.2114 N   0  0  0  0  0  0  0  0  0  0  0  0
  -26.7784   14.2033  -23.0794 C   0  0  0  0  0  0  0  0  0  0  0  0
  -26.1653   13.2736  -23.8817 C   0  0  0  0  0  0  0  0  0  0  0  0
  -24.8907   12.8040  -23.6365 C   0  0  0  0  0  0  0  0  0  0  0  0
  -24.1872   13.2716  -22.5592 C   0  0  0  0  0  0  0  0  0  0  0  0
  -22.9658   12.8900  -22.2016 O   0  0  0  0  0  0  0  0  0  0  0  0
  -22.0966   11.8448  -22.3215 C   0  0  0  0  0  0  0  0  0  0  0  0
  -20.8975   12.1790  -21.4857 C   0  0  0  0  0  0  0  0  0  0  0  0
  -20.8765   13.3429  -20.6276 C   0  0  0  0  0  0  0  0  0  0  0  0
  -19.7369   13.5637  -19.9171 C   0  0  0  0  0  0  0  0  0  0  0  0
  -18.6013   12.8022  -19.9171 C   0  0  0  0  0  0  0  0  0  0  0  0
  -18.6705   11.6636  -20.7765 C   0  0  0  0  0  0  0  0  0  0  0  0
  -19.7852   11.4847  -21.4481 N   0  0  0  0  0  0  0  0  0  0  0  0
  -24.8216   14.2387  -21.7389 C   0  0  0  0  0  0  0  0  0  0  0  0
  -23.9537   14.8713  -20.3558 Cl  0  0  0  0  0  0  0  0  0  0  0  0
  -26.0493   14.6857  -21.9859 C   0  0  0  0  0  0  0  0  0  0  0  0
  -29.8441   14.3077  -21.4528 C   0  0  0  0  0  0  0  0  0  0  0  0
  -30.2144   13.0569  -21.9800 C   0  0  0  0  0  0  0  0  0  0  0  0
  -31.2160   12.3632  -21.4095 C   0  0  0  0  0  0  0  0  0  0  0  0
  -31.6487   11.0851  -21.9427 N   0  0  0  0  0  0  0  0  0  0  0  0
  -31.2321   10.6914  -23.2185 C   0  0  0  0  0  0  0  0  0  0  0  0
  -30.4199   11.5341  -23.8145 O   0  0  0  0  0  0  0  0  0  0  0  0
  -31.5922    9.5121  -23.9209 C   0  0  0  0  0  0  0  0  0  0  0  0
  -31.0628    9.2387  -25.1032 C   0  0  0  0  0  0  0  0  0  0  0  0
  -31.3775    8.1280  -25.9956 C   0  0  0  0  0  0  0  0  0  0  0  0
  -30.6960    7.9971  -27.2190 N   0  0  0  0  0  0  0  0  0  0  0  0
  -29.2895    7.9984  -27.2676 C   0  0  0  0  0  0  0  0  0  0  0  0
  -31.3018    6.9295  -28.0455 C   0  0  0  0  0  0  0  0  0  0  0  0
  1  2  1  0
  2  3  1  0
  3  4  1  0
  4  5  2  0
  5  6  1  0
  6  7  2  0
  7  8  1  0
  8  9  2  0
  9 10  1  0
 10 11  3  0
  9 12  1  0
 12 13  1  0
 13 14  1  0
 14 15  2  0
 15 16  1  0
 16 17  2  0
 17 18  1  0
 18 19  1  0
 19 20  1  0
 20 21  2  0
 21 22  1  0
 22 23  2  0
 23 24  1  0
 24 25  2  0
 17 26  1  0
 26 27  1  0
 26 28  2  0
 12 29  2  0
 29 30  1  0
 30 31  2  0
 31 32  1  0
 32 33  1  0
 33 34  2  0
 33 35  1  0
 35 36  2  0
 36 37  1  0
 37 38  1  0
 38 39  1  0
 38 40  1  0
 31  4  1  0
 29  6  1  0
 28 14  1  0
 25 20  1  0
M  END
$$$$
