
     RDKit          3D

 17 19  0  0  0  0  0  0  0  0999 V2000
  -23.4309   13.7311  -32.6716 C   0  0  0  0  0  0  0  0  0  0  0  0
  -22.4268   14.6994  -32.2771 N   0  0  0  0  0  0  0  0  0  0  0  0
  -22.9632   15.5350  -31.2219 C   0  0  0  0  0  0  0  0  0  0  0  0
  -22.0147   16.6878  -31.0208 C   0  0  0  0  0  0  0  0  0  0  0  0
  -20.6289   16.2154  -31.4282 C   0  0  0  0  0  0  0  0  0  0  0  0
  -19.6805   17.2531  -31.0616 C   0  0  0  0  0  0  0  0  0  0  0  0
  -20.0519   18.5984  -31.0083 C   0  0  0  0  0  0  0  0  0  0  0  0
  -19.0135   19.3238  -30.6495 N   0  0  0  0  0  0  0  0  0  0  0  0
  -17.9457   18.5498  -30.4525 C   0  0  0  0  0  0  0  0  0  0  0  0
  -16.6331   18.7784  -30.0767 C   0  0  0  0  0  0  0  0  0  0  0  0
  -15.7322   17.7472  -29.9533 C   0  0  0  0  0  0  0  0  0  0  0  0
  -16.1636   16.4647  -30.2134 C   0  0  0  0  0  0  0  0  0  0  0  0
  -15.3030   15.3804  -30.1067 O   0  0  0  0  0  0  0  0  0  0  0  0
  -17.4733   16.2227  -30.5899 C   0  0  0  0  0  0  0  0  0  0  0  0
  -18.3486   17.2550  -30.7064 C   0  0  0  0  0  0  0  0  0  0  0  0
  -20.4500   14.8566  -30.8589 C   0  0  0  0  0  0  0  0  0  0  0  0
  -21.2677   13.9436  -31.8097 C   0  0  0  0  0  0  0  0  0  0  0  0
  1  2  1  0
  2  3  1  0
  3  4  1  0
  4  5  1  0
  5  6  1  0
  6  7  2  0
  7  8  1  0
  8  9  1  0
  9 10  2  0
 10 11  1  0
 11 12  2  0
 12 13  1  0
 12 14  1  0
 14 15  2  0
  5 16  1  0
 16 17  1  0
 17  2  1  0
 15  6  1  0
 15  9  1  0
M  END
$$$$
