
     RDKit          3D

 36 40  0  0  0  0  0  0  0  0999 V2000
  -21.7896   31.6469  -24.0446 C   0  0  0  0  0  0  0  0  0  0  0  0
  -21.0058   32.9017  -23.7545 C   0  0  0  0  0  0  0  0  0  0  0  0
  -21.0695   33.2663  -22.2992 C   0  0  0  0  0  0  0  0  0  0  0  0
  -20.2549   34.4282  -22.0374 N   0  0  0  0  0  0  0  0  0  0  0  0
  -18.9509   34.3683  -21.7102 C   0  0  0  0  0  0  0  0  0  0  0  0
  -18.3690   33.2412  -21.6028 O   0  0  0  0  0  0  0  0  0  0  0  0
  -18.2396   35.4933  -21.4895 N   0  0  0  0  0  0  0  0  0  0  0  0
  -18.7439   36.7262  -21.5714 C   0  0  0  0  0  0  0  0  0  0  0  0
  -18.2717   37.9848  -21.4060 N   0  0  0  0  0  0  0  0  0  0  0  0
  -19.2581   38.8634  -21.6223 C   0  0  0  0  0  0  0  0  0  0  0  0
  -19.1895   40.3312  -21.5501 C   0  0  0  0  0  0  0  0  0  0  0  0
  -18.5521   40.9697  -20.5300 C   0  0  0  0  0  0  0  0  0  0  0  0
  -18.4888   42.3632  -20.4637 C   0  0  0  0  0  0  0  0  0  0  0  0
  -19.0712   43.1361  -21.4311 C   0  0  0  0  0  0  0  0  0  0  0  0
  -19.0248   44.8724  -21.4012 S   0  0  0  0  0  6  0  0  0  0  0  0
  -20.1679   45.4296  -20.5924 O   0  0  0  0  0  0  0  0  0  0  0  0
  -19.2230   45.4143  -22.8095 O   0  0  0  0  0  0  0  0  0  0  0  0
  -17.5114   45.4259  -20.8246 N   0  0  0  0  0  0  0  0  0  0  0  0
  -17.6874   46.6336  -20.0463 C   0  0  0  0  0  0  0  0  0  0  0  0
  -16.3945   47.4447  -20.0199 C   0  0  0  0  0  0  0  0  0  0  0  0
  -15.2633   46.5571  -20.0484 N   0  0  0  0  0  0  0  0  0  0  0  0
  -14.2711   46.4777  -19.0334 C   0  0  0  0  0  0  0  0  0  0  0  0
  -14.2520   47.2677  -17.9159 C   0  0  0  0  0  0  0  0  0  0  0  0
  -13.2376   47.1348  -16.9599 C   0  0  0  0  0  0  0  0  0  0  0  0
  -12.2322   46.2073  -17.1161 C   0  0  0  0  0  0  0  0  0  0  0  0
  -10.9373   45.9950  -15.9539 Cl  0  0  0  0  0  0  0  0  0  0  0  0
  -12.2509   45.4112  -18.2415 C   0  0  0  0  0  0  0  0  0  0  0  0
  -13.2539   45.5527  -19.1731 C   0  0  0  0  0  0  0  0  0  0  0  0
  -15.1650   45.6859  -21.2281 C   0  0  0  0  0  0  0  0  0  0  0  0
  -16.5525   45.6490  -21.8647 C   0  0  0  0  0  0  0  0  0  0  0  0
  -19.7214   42.4644  -22.4713 C   0  0  0  0  0  0  0  0  0  0  0  0
  -19.7780   41.0874  -22.5274 C   0  0  0  0  0  0  0  0  0  0  0  0
  -20.3449   38.1433  -21.9230 N   0  0  0  0  0  0  0  0  0  0  0  0
  -20.0848   36.8275  -21.9059 C   0  0  0  0  0  0  0  0  0  0  0  0
  -20.8054   35.6763  -22.1302 C   0  0  0  0  0  0  0  0  0  0  0  0
  -22.0186   35.8086  -22.4313 O   0  0  0  0  0  0  0  0  0  0  0  0
  1  2  1  0
  2  3  1  0
  3  4  1  0
  4  5  1  0
  5  6  2  0
  5  7  1  0
  7  8  1  0
  8  9  1  0
  9 10  2  0
 10 11  1  0
 11 12  2  0
 12 13  1  0
 13 14  2  0
 14 15  1  0
 15 16  2  0
 15 17  2  0
 15 18  1  0
 18 19  1  0
 19 20  1  0
 20 21  1  0
 21 22  1  0
 22 23  2  0
 23 24  1  0
 24 25  2  0
 25 26  1  0
 25 27  1  0
 27 28  2  0
 21 29  1  0
 29 30  1  0
 14 31  1  0
 31 32  2  0
 10 33  1  0
 33 34  1  0
 34 35  1  0
 35 36  2  0
 35  4  1  0
 34  8  2  0
 32 11  1  0
 30 18  1  0
 28 22  1  0
M  END
$$$$
