
     RDKit          3D

 20 19  0  0  0  0  0  0  0  0999 V2000
  -20.2835   38.1821  -21.0188 N   0  0  0  0  0  0  0  0  0  0  0  0
  -20.5398   39.3517  -20.1524 C   0  0  1  0  0  0  0  0  0  0  0  0
  -20.7265   40.5748  -21.0109 C   0  0  0  0  0  0  0  0  0  0  0  0
  -20.0571   41.7472  -20.4007 C   0  0  0  0  0  0  0  0  0  0  0  0
  -18.6495   41.9181  -20.9310 C   0  0  0  0  0  0  0  0  0  0  0  0
  -18.2484   41.0788  -21.7575 O   0  0  0  0  0  0  0  0  0  0  0  0
  -17.8174   42.9821  -20.5122 N   0  0  0  0  0  0  0  0  0  0  0  0
  -16.3853   43.0068  -20.7335 C   0  0  1  0  0  0  0  0  0  0  0  0
  -16.0472   42.9636  -22.2086 C   0  0  0  0  0  0  0  0  0  0  0  0
  -15.9566   41.2264  -22.7880 S   0  0  0  0  0  0  0  0  0  0  0  0
  -15.8440   44.2550  -20.1743 C   0  0  0  0  0  0  0  0  0  0  0  0
  -15.7367   45.2406  -20.9799 O   0  0  0  0  0  0  0  0  0  0  0  0
  -15.4455   44.4056  -18.8080 N   0  0  0  0  0  0  0  0  0  0  0  0
  -14.0284   44.4958  -18.5503 C   0  0  0  0  0  0  0  0  0  0  0  0
  -13.5507   43.5304  -17.5679 C   0  0  0  0  0  0  0  0  0  0  0  0
  -12.6778   43.8477  -16.7329 O   0  0  0  0  0  0  0  0  0  0  0  0
  -14.0560   42.2467  -17.5439 O   0  0  0  0  0  0  0  0  0  0  0  0
  -21.7755   39.1116  -19.3667 C   0  0  0  0  0  0  0  0  0  0  0  0
  -22.7024   38.3691  -19.7128 O   0  0  0  0  0  0  0  0  0  0  0  0
  -21.9167   39.7713  -18.1339 O   0  0  0  0  0  0  0  0  0  0  0  0
  2  1  1  6
  2  3  1  0
  3  4  1  0
  4  5  1  0
  5  6  2  0
  5  7  1  0
  7  8  1  0
  8  9  1  6
  9 10  1  0
  8 11  1  0
 11 12  2  0
 11 13  1  0
 13 14  1  0
 14 15  1  0
 15 16  2  0
 15 17  1  0
  2 18  1  0
 18 19  2  0
 18 20  1  0
M  END
$$$$
