
     RDKit          3D

  8  8  0  0  0  0  0  0  0  0999 V2000
  -13.3307   13.7773  -31.4502 C   0  0  0  0  0  0  0  0  0  0  0  0
  -13.8951   13.4231  -30.1103 C   0  0  0  0  0  0  0  0  0  0  0  0
  -13.0947   13.2914  -28.9911 C   0  0  0  0  0  0  0  0  0  0  0  0
  -13.6343   12.9609  -27.7488 C   0  0  0  0  0  0  0  0  0  0  0  0
  -14.9631   12.7709  -27.6607 N   0  0  0  0  0  0  0  0  0  0  0  0
  -15.7991   12.8817  -28.7023 C   0  0  0  0  0  0  0  0  0  0  0  0
  -17.1902   12.6817  -28.6046 N   0  0  0  0  0  0  0  0  0  0  0  0
  -15.2450   13.2119  -29.9343 C   0  0  0  0  0  0  0  0  0  0  0  0
  1  2  1  0
  2  3  2  0
  3  4  1  0
  4  5  2  0
  5  6  1  0
  6  7  1  0
  6  8  2  0
  8  2  1  0
M  END
$$$$
