
     RDKit          3D

 19 20  0  0  0  0  0  0  0  0999 V2000
  -16.1355   46.3298  -19.0099 C   0  0  0  0  0  0  0  0  0  0  0  0
  -16.0694   45.7033  -20.2754 O   0  0  0  0  0  0  0  0  0  0  0  0
  -16.5366   44.4138  -20.4957 C   0  0  0  0  0  0  0  0  0  0  0  0
  -16.7875   43.5583  -19.4500 C   0  0  0  0  0  0  0  0  0  0  0  0
  -17.2569   42.2629  -19.6724 C   0  0  0  0  0  0  0  0  0  0  0  0
  -17.4852   41.7962  -20.9491 C   0  0  0  0  0  0  0  0  0  0  0  0
  -17.9772   40.4403  -21.1959 C   0  0  0  0  0  0  0  0  0  0  0  0
  -19.4742   40.3117  -21.1039 C   0  0  1  0  0  0  0  0  0  0  0  0
  -20.1521   41.0698  -22.1430 N   0  0  0  0  0  0  0  0  0  0  0  0
  -21.4664   40.4516  -22.1270 C   0  0  0  0  0  0  0  0  0  0  0  0
  -21.1101   38.9867  -22.2736 C   0  0  2  0  0  0  0  0  0  0  0  0
  -22.1385   38.2383  -21.6915 O   0  0  0  0  0  0  0  0  0  0  0  0
  -19.8530   38.8874  -21.4521 C   0  0  1  0  0  0  0  0  0  0  0  0
  -18.7889   38.2724  -22.1227 O   0  0  0  0  0  0  0  0  0  0  0  0
  -18.1418   37.1359  -21.7019 C   0  0  0  0  0  0  0  0  0  0  0  0
  -17.2170   36.3474  -22.5568 C   0  0  0  0  0  0  0  0  0  0  0  0
  -18.3638   36.7652  -20.5207 O   0  0  0  0  0  0  0  0  0  0  0  0
  -17.2302   42.6626  -21.9925 C   0  0  0  0  0  0  0  0  0  0  0  0
  -16.7626   43.9540  -21.7753 C   0  0  0  0  0  0  0  0  0  0  0  0
  1  2  1  0
  2  3  1  0
  3  4  2  0
  4  5  1  0
  5  6  2  0
  6  7  1  0
  8  7  1  6
  8  9  1  0
  9 10  1  0
 10 11  1  0
 11 12  1  1
 11 13  1  0
 13 14  1  6
 14 15  1  0
 15 16  1  0
 15 17  2  0
  6 18  1  0
 18 19  2  0
 19  3  1  0
 13  8  1  0
M  END
$$$$
