
     RDKit          3D

 19 20  0  0  0  0  0  0  0  0999 V2000
  -17.4974   15.3484  -30.2180 Cl  0  0  0  0  0  0  0  0  0  0  0  0
  -22.1257   14.9488  -29.2671 Cl  0  0  0  0  0  0  0  0  0  0  0  0
  -20.8468   15.8058  -30.0999 C   0  0  0  0  0  0  0  0  0  0  0  0
  -21.1240   16.9813  -30.7728 C   0  0  0  0  0  0  0  0  0  0  0  0
  -20.1305   17.6696  -31.4300 C   0  0  0  0  0  0  0  0  0  0  0  0
  -18.8496   17.1621  -31.4049 C   0  0  0  0  0  0  0  0  0  0  0  0
  -18.5222   15.9879  -30.7447 C   0  0  0  0  0  0  0  0  0  0  0  0
  -17.1937   15.4867  -30.7510 N   0  0  0  0  0  0  0  0  0  0  0  0
  -16.6298   14.5975  -29.8331 C   0  0  0  0  0  0  0  0  0  0  0  0
  -17.2925   14.1217  -28.7655 N   0  0  0  0  0  0  0  0  0  0  0  0
  -16.8159   13.2801  -27.8580 C   0  0  0  0  0  0  0  0  0  0  0  0
  -15.5337   12.8670  -28.0358 N   0  0  0  0  0  0  0  0  0  0  0  0
  -14.7764   13.2638  -29.0476 C   0  0  0  0  0  0  0  0  0  0  0  0
  -13.4935   12.7852  -29.1346 C   0  0  0  0  0  0  0  0  0  0  0  0
  -12.7053   13.1973  -30.1880 C   0  0  0  0  0  0  0  0  0  0  0  0
  -13.2083   14.0719  -31.1272 C   0  0  0  0  0  0  0  0  0  0  0  0
  -14.5041   14.5312  -31.0053 C   0  0  0  0  0  0  0  0  0  0  0  0
  -15.3317   14.1535  -29.9766 C   0  0  0  0  0  0  0  0  0  0  0  0
  -19.5309   15.3263  -30.1005 C   0  0  0  0  0  0  0  0  0  0  0  0
  2  3  1  0
  3  4  2  0
  4  5  1  0
  5  6  2  0
  6  7  1  0
  7  8  1  0
  8  9  1  0
  9 10  2  0
 10 11  1  0
 11 12  2  0
 12 13  1  0
 13 14  2  0
 14 15  1  0
 15 16  2  0
 16 17  1  0
 17 18  2  0
  7 19  2  0
 19  3  1  0
 18  9  1  0
 18 13  1  0
M  END
$$$$
