
     RDKit          3D

 18 20  0  0  0  0  0  0  0  0999 V2000
  -18.4216   35.5970  -21.0499 C   0  0  0  0  0  0  0  0  0  0  0  0
  -19.6753   35.9089  -21.5281 C   0  0  0  0  0  0  0  0  0  0  0  0
  -20.0302   37.2625  -21.5839 C   0  0  0  0  0  0  0  0  0  0  0  0
  -19.1684   38.2477  -21.1797 C   0  0  0  0  0  0  0  0  0  0  0  0
  -19.4900   39.6631  -21.2184 C   0  0  0  0  0  0  0  0  0  0  0  0
  -20.6882   40.1226  -21.7106 C   0  0  0  0  0  0  0  0  0  0  0  0
  -21.0082   41.4660  -21.7537 C   0  0  0  0  0  0  0  0  0  0  0  0
  -20.0885   42.3781  -21.2845 C   0  0  0  0  0  0  0  0  0  0  0  0
  -18.8768   41.9312  -20.7854 C   0  0  0  0  0  0  0  0  0  0  0  0
  -17.8575   42.8392  -20.2727 C   0  0  0  0  0  0  0  0  0  0  0  0
  -18.0143   44.1928  -20.3162 C   0  0  0  0  0  0  0  0  0  0  0  0
  -17.0122   45.0228  -19.8136 C   0  0  0  0  0  0  0  0  0  0  0  0
  -15.8730   44.4557  -19.2780 C   0  0  0  0  0  0  0  0  0  0  0  0
  -15.7503   43.1002  -19.2510 C   0  0  0  0  0  0  0  0  0  0  0  0
  -16.7383   42.3287  -19.7455 N   0  0  0  0  0  0  0  0  0  0  0  0
  -18.6399   40.6000  -20.7778 N   0  0  0  0  0  0  0  0  0  0  0  0
  -17.9647   37.8566  -20.7264 N   0  0  0  0  0  0  0  0  0  0  0  0
  -17.5643   36.5973  -20.6466 C   0  0  0  0  0  0  0  0  0  0  0  0
  1  2  2  0
  2  3  1  0
  3  4  2  0
  4  5  1  0
  5  6  2  0
  6  7  1  0
  7  8  2  0
  8  9  1  0
  9 10  1  0
 10 11  2  0
 11 12  1  0
 12 13  2  0
 13 14  1  0
 14 15  2  0
  9 16  2  0
  4 17  1  0
 17 18  2  0
 18  1  1  0
 16  5  1  0
 15 10  1  0
M  END
$$$$
