
     RDKit          3D

 28 29  0  0  0  0  0  0  0  0999 V2000
  -18.2691   42.1968  -27.0055 C   0  0  0  0  0  0  0  0  0  0  0  0
  -18.6418   40.7639  -26.8026 C   0  0  0  0  0  0  0  0  0  0  0  0
  -19.5069   40.5782  -25.7012 O   0  0  0  0  0  0  0  0  0  0  0  0
  -19.8986   39.3190  -25.3050 C   0  0  0  0  0  0  0  0  0  0  0  0
  -19.5240   38.3683  -26.1008 O   0  0  0  0  0  0  0  0  0  0  0  0
  -20.6534   38.9528  -24.1324 C   0  0  0  0  0  0  0  0  0  0  0  0
  -21.9148   38.6343  -24.2073 C   0  0  0  0  0  0  0  0  0  0  0  0
  -22.7574   38.5565  -25.4360 C   0  0  0  0  0  0  0  0  0  0  0  0
  -23.5959   37.4663  -25.2791 O   0  0  0  0  0  0  0  0  0  0  0  0
  -24.4049   37.1544  -26.3215 C   0  0  0  0  0  0  0  0  0  0  0  0
  -25.2934   35.9960  -25.9649 C   0  0  0  0  0  0  0  0  0  0  0  0
  -26.1884   35.6887  -27.0581 N   0  0  0  0  0  0  0  0  0  0  0  0
  -22.6547   38.6618  -22.9418 N   0  0  0  0  0  0  0  0  0  0  0  0
  -22.0616   39.0167  -21.7126 C   0  0  0  0  0  0  0  0  0  0  0  0
  -22.8710   39.0612  -20.4657 C   0  0  0  0  0  0  0  0  0  0  0  0
  -20.7752   39.3111  -21.6754 C   0  0  0  0  0  0  0  0  0  0  0  0
  -20.1064   39.7399  -20.4619 C   0  0  0  0  0  0  0  0  0  0  0  0
  -18.8825   39.3922  -20.3180 O   0  0  0  0  0  0  0  0  0  0  0  0
  -20.6914   40.4820  -19.4748 O   0  0  0  0  0  0  0  0  0  0  0  0
  -20.8527   40.0717  -18.1378 C   0  0  0  0  0  0  0  0  0  0  0  0
  -19.9156   38.8298  -22.8457 C   0  0  0  0  0  0  0  0  0  0  0  0
  -19.6074   37.3873  -22.5468 C   0  0  0  0  0  0  0  0  0  0  0  0
  -20.6658   36.4904  -22.5258 C   0  0  0  0  0  0  0  0  0  0  0  0
  -20.4595   35.1230  -22.2722 C   0  0  0  0  0  0  0  0  0  0  0  0
  -19.2230   34.6152  -22.0372 C   0  0  0  0  0  0  0  0  0  0  0  0
  -18.1638   35.4798  -22.0532 C   0  0  0  0  0  0  0  0  0  0  0  0
  -18.3708   36.8453  -22.3064 C   0  0  0  0  0  0  0  0  0  0  0  0
  -16.9568   37.8360  -22.3011 Cl  0  0  0  0  0  0  0  0  0  0  0  0
  1  2  1  0
  2  3  1  0
  3  4  1  0
  4  5  2  0
  4  6  1  0
  6  7  2  0
  7  8  1  0
  8  9  1  0
  9 10  1  0
 10 11  1  0
 11 12  1  0
  7 13  1  0
 13 14  1  0
 14 15  1  0
 14 16  2  0
 16 17  1  0
 17 18  2  0
 17 19  1  0
 19 20  1  0
 16 21  1  0
 21 22  1  0
 22 23  2  0
 23 24  1  0
 24 25  2  0
 25 26  1  0
 26 27  2  0
 27 28  1  0
 21  6  1  0
 27 22  1  0
M  END
$$$$
