
     RDKit          3D

 19 21  0  0  0  0  0  0  0  0999 V2000
  -17.8601   14.4683  -28.1844 O   0  0  0  0  0  0  0  0  0  0  0  0
  -17.3914   14.9752  -29.2266 C   0  0  0  0  0  0  0  0  0  0  0  0
  -16.1208   14.5791  -29.6595 N   0  0  0  0  0  0  0  0  0  0  0  0
  -15.6691   13.2054  -29.4335 C   0  0  0  0  0  0  0  0  0  0  0  0
  -15.2141   13.0244  -28.0207 C   0  0  0  0  0  0  0  0  0  0  0  0
  -14.0386   12.1712  -27.9310 C   0  0  0  0  0  0  0  0  0  0  0  0
  -13.9697   10.9985  -28.6627 C   0  0  0  0  0  0  0  0  0  0  0  0
  -12.8506   10.1894  -28.6180 C   0  0  0  0  0  0  0  0  0  0  0  0
  -11.7754   10.5362  -27.8398 C   0  0  0  0  0  0  0  0  0  0  0  0
  -11.8231   11.6887  -27.1094 C   0  0  0  0  0  0  0  0  0  0  0  0
  -10.7422   12.0110  -26.3329 C   0  0  0  0  0  0  0  0  0  0  0  0
  -10.7563   13.1559  -25.5776 C   0  0  0  0  0  0  0  0  0  0  0  0
  -11.8672   13.9685  -25.6134 C   0  0  0  0  0  0  0  0  0  0  0  0
  -12.9504   13.6240  -26.4063 C   0  0  0  0  0  0  0  0  0  0  0  0
  -12.9604   12.4894  -27.1685 C   0  0  0  0  0  0  0  0  0  0  0  0
  -18.1632   15.9678  -29.9796 C   0  0  0  0  0  0  0  0  0  0  0  0
  -17.9110   15.9497  -31.4936 C   0  0  0  0  0  0  0  0  0  0  0  0
  -19.3804   16.3559  -31.6141 C   0  0  0  0  0  0  0  0  0  0  0  0
  -19.5918   15.5281  -30.3376 C   0  0  0  0  0  0  0  0  0  0  0  0
  1  2  2  0
  2  3  1  0
  3  4  1  0
  4  5  1  0
  5  6  1  0
  6  7  2  0
  7  8  1  0
  8  9  2  0
  9 10  1  0
 10 11  2  0
 11 12  1  0
 12 13  2  0
 13 14  1  0
 14 15  2  0
  2 16  1  0
 16 17  1  0
 17 18  1  0
 18 19  1  0
 15  6  1  0
 19 16  1  0
 15 10  1  0
M  END
$$$$
