
     RDKit          3D

 23 26  0  0  0  0  0  0  0  0999 V2000
  -15.7928   46.9852  -17.9420 C   0  0  0  0  0  0  0  0  0  0  0  0
  -16.3466   45.7513  -18.5039 N   0  0  0  0  0  0  0  0  0  0  0  0
  -16.5932   45.7155  -19.9109 C   0  0  0  0  0  0  0  0  0  0  0  0
  -16.3277   46.7477  -20.5986 O   0  0  0  0  0  0  0  0  0  0  0  0
  -17.1349   44.5486  -20.5899 C   0  0  0  0  0  0  0  0  0  0  0  0
  -17.5865   44.6401  -21.8850 C   0  0  0  0  0  0  0  0  0  0  0  0
  -18.0910   43.5224  -22.4962 C   0  0  0  0  0  0  0  0  0  0  0  0
  -18.1391   42.3317  -21.8123 C   0  0  0  0  0  0  0  0  0  0  0  0
  -18.6434   41.1762  -22.3973 C   0  0  0  0  0  0  0  0  0  0  0  0
  -18.7095   39.9628  -21.7469 C   0  0  0  0  0  0  0  0  0  0  0  0
  -19.2746   38.8274  -22.5116 C   0  0  1  0  0  0  0  0  0  0  0  0
  -19.6411   39.1952  -23.8015 O   0  0  0  0  0  0  0  0  0  0  0  0
  -18.3841   37.6187  -22.5076 C   0  0  0  0  0  0  0  0  0  0  0  0
  -19.3988   36.5393  -22.8806 C   0  0  0  0  0  0  0  0  0  0  0  0
  -20.5494   36.9617  -22.0816 N   0  0  0  0  0  0  0  0  0  0  0  0
  -21.6602   36.5153  -21.4770 C   0  0  0  0  0  0  0  0  0  0  0  0
  -22.3050   37.5231  -20.8788 N   0  0  0  0  0  0  0  0  0  0  0  0
  -21.5935   38.6350  -21.1050 C   0  0  0  0  0  0  0  0  0  0  0  0
  -20.5021   38.2748  -21.8549 C   0  0  0  0  0  0  0  0  0  0  0  0
  -18.2616   39.8709  -20.4615 C   0  0  0  0  0  0  0  0  0  0  0  0
  -17.7525   40.9919  -19.8398 C   0  0  0  0  0  0  0  0  0  0  0  0
  -17.6907   42.2096  -20.5048 C   0  0  0  0  0  0  0  0  0  0  0  0
  -17.1933   43.3442  -19.9244 C   0  0  0  0  0  0  0  0  0  0  0  0
  1  2  1  0
  2  3  1  0
  3  4  2  0
  3  5  1  0
  5  6  2  0
  6  7  1  0
  7  8  2  0
  8  9  1  0
  9 10  2  0
 10 11  1  0
 11 12  1  6
 11 13  1  0
 13 14  1  0
 14 15  1  0
 15 16  1  0
 16 17  2  0
 17 18  1  0
 18 19  2  0
 10 20  1  0
 20 21  2  0
 21 22  1  0
 22 23  2  0
 23  5  1  0
 22  8  1  0
 19 11  1  0
 19 15  1  0
M  END
$$$$
