
     RDKit          3D

 23 24  0  0  0  0  0  0  0  0999 V2000
  -18.2654   17.5133  -32.6820 C   0  0  0  0  0  0  0  0  0  0  0  0
  -18.4045   16.6235  -31.5707 N   0  0  0  0  0  0  0  0  0  0  0  0
  -19.5526   16.3284  -30.9577 C   0  0  0  0  0  0  0  0  0  0  0  0
  -20.8958   16.8016  -31.2420 C   0  0  0  0  0  0  0  0  0  0  0  0
  -21.4928   17.7386  -30.2375 C   0  0  0  0  0  0  0  0  0  0  0  0
  -22.9034   18.1550  -30.6124 C   0  0  0  0  0  0  0  0  0  0  0  0
  -22.7787   19.0937  -31.7692 C   0  0  0  0  0  0  0  0  0  0  0  0
  -21.6653   19.2840  -32.3523 O   0  0  0  0  0  0  0  0  0  0  0  0
  -23.8643   19.8088  -32.2697 O   0  0  0  0  0  0  0  0  0  0  0  0
  -19.2560   15.4439  -29.9627 N   0  0  0  0  0  0  0  0  0  0  0  0
  -17.9398   15.2231  -29.9943 C   0  0  0  0  0  0  0  0  0  0  0  0
  -17.1309   14.3924  -29.1953 C   0  0  0  0  0  0  0  0  0  0  0  0
  -15.7863   14.2564  -29.3518 C   0  0  0  0  0  0  0  0  0  0  0  0
  -14.8798   13.4889  -28.5627 N   0  0  0  0  0  0  0  0  0  0  0  0
  -14.9578   13.2055  -27.1857 C   0  0  0  0  0  0  0  0  0  0  0  0
  -14.8989   11.8114  -26.6744 C   0  0  0  0  0  0  0  0  0  0  0  0
  -15.4500   11.7657  -24.9727 Cl  0  0  0  0  0  0  0  0  0  0  0  0
  -13.7594   12.8304  -29.2756 C   0  0  0  0  0  0  0  0  0  0  0  0
  -13.9720   12.8081  -30.7410 C   0  0  0  0  0  0  0  0  0  0  0  0
  -12.8314   11.9438  -31.7463 Cl  0  0  0  0  0  0  0  0  0  0  0  0
  -15.2484   15.0333  -30.4047 C   0  0  0  0  0  0  0  0  0  0  0  0
  -16.0279   15.8483  -31.1916 C   0  0  0  0  0  0  0  0  0  0  0  0
  -17.3762   15.9482  -30.9927 C   0  0  0  0  0  0  0  0  0  0  0  0
  1  2  1  0
  2  3  1  0
  3  4  1  0
  4  5  1  0
  5  6  1  0
  6  7  1  0
  7  8  2  0
  7  9  1  0
  3 10  2  0
 10 11  1  0
 11 12  2  0
 12 13  1  0
 13 14  1  0
 14 15  1  0
 15 16  1  0
 16 17  1  0
 14 18  1  0
 18 19  1  0
 19 20  1  0
 13 21  2  0
 21 22  1  0
 22 23  2  0
 23  2  1  0
 23 11  1  0
M  END
$$$$
