
     RDKit          3D

 37 41  0  0  0  0  0  0  0  0999 V2000
  -28.3788   10.7680  -20.4700 O   0  0  0  0  0  0  0  0  0  0  0  0
  -28.0712   11.0817  -19.2941 C   0  0  0  0  0  0  0  0  0  0  0  0
  -26.9406   11.9335  -19.1253 N   0  0  0  0  0  0  0  0  0  0  0  0
  -26.1866   12.4299  -20.2086 C   0  0  0  0  0  0  0  0  0  0  0  0
  -26.8176   12.8506  -21.3546 C   0  0  0  0  0  0  0  0  0  0  0  0
  -26.0810   13.3426  -22.4447 C   0  0  0  0  0  0  0  0  0  0  0  0
  -26.7288   13.7647  -23.5968 O   0  0  0  0  0  0  0  0  0  0  0  0
  -26.0903   13.8564  -24.7996 C   0  0  0  0  0  0  0  0  0  0  0  0
  -25.1406   14.8442  -25.0517 C   0  0  0  0  0  0  0  0  0  0  0  0
  -24.5207   14.8976  -26.2820 C   0  0  0  0  0  0  0  0  0  0  0  0
  -23.5940   15.8479  -26.5539 F   0  0  0  0  0  0  0  0  0  0  0  0
  -24.8058   14.0004  -27.2887 C   0  0  0  0  0  0  0  0  0  0  0  0
  -24.1366   14.0711  -28.5633 N   0  0  0  0  0  0  0  0  0  0  0  0
  -24.3482   13.1634  -29.6071 C   0  0  0  0  0  0  0  0  0  0  0  0
  -25.1249   12.1705  -29.2911 O   0  0  0  0  0  0  0  0  0  0  0  0
  -23.8248   13.1965  -30.9836 C   0  0  0  0  0  0  0  0  0  0  0  0
  -22.9973   14.3519  -31.4115 C   0  0  0  0  0  0  0  0  0  0  0  0
  -22.0094   14.0556  -32.1540 O   0  0  0  0  0  0  0  0  0  0  0  0
  -23.1699   15.6979  -31.0917 N   0  0  0  0  0  0  0  0  0  0  0  0
  -22.2200   16.5953  -30.5269 C   0  0  0  0  0  0  0  0  0  0  0  0
  -20.8913   16.1658  -30.4556 C   0  0  0  0  0  0  0  0  0  0  0  0
  -19.8829   16.9265  -29.9349 C   0  0  0  0  0  0  0  0  0  0  0  0
  -20.1492   18.1800  -29.4479 C   0  0  0  0  0  0  0  0  0  0  0  0
  -19.1495   18.9177  -28.9394 F   0  0  0  0  0  0  0  0  0  0  0  0
  -21.4385   18.6278  -29.5036 C   0  0  0  0  0  0  0  0  0  0  0  0
  -22.4635   17.8406  -30.0390 C   0  0  0  0  0  0  0  0  0  0  0  0
  -23.4612   11.8772  -31.6075 C   0  0  0  0  0  0  0  0  0  0  0  0
  -24.7329   12.5644  -32.0060 C   0  0  0  0  0  0  0  0  0  0  0  0
  -25.7488   13.0212  -27.0366 C   0  0  0  0  0  0  0  0  0  0  0  0
  -26.3715   12.9633  -25.8079 C   0  0  0  0  0  0  0  0  0  0  0  0
  -27.3061   11.9886  -25.5648 F   0  0  0  0  0  0  0  0  0  0  0  0
  -24.7203   13.3940  -22.3398 C   0  0  0  0  0  0  0  0  0  0  0  0
  -24.1120   12.9681  -21.1839 C   0  0  0  0  0  0  0  0  0  0  0  0
  -24.8461   12.5006  -20.1546 N   0  0  0  0  0  0  0  0  0  0  0  0
  -28.8746   10.5669  -18.1768 C   0  0  0  0  0  0  0  0  0  0  0  0
  -29.3516    9.1592  -18.1564 C   0  0  0  0  0  0  0  0  0  0  0  0
  -30.3302   10.2178  -18.5338 C   0  0  0  0  0  0  0  0  0  0  0  0
  1  2  2  0
  2  3  1  0
  3  4  1  0
  4  5  2  0
  5  6  1  0
  6  7  1  0
  7  8  1  0
  8  9  2  0
  9 10  1  0
 10 11  1  0
 10 12  2  0
 12 13  1  0
 13 14  1  0
 14 15  2  0
 14 16  1  0
 16 17  1  0
 17 18  2  0
 17 19  1  0
 19 20  1  0
 20 21  2  0
 21 22  1  0
 22 23  2  0
 23 24  1  0
 23 25  1  0
 25 26  2  0
 16 27  1  0
 27 28  1  0
 12 29  1  0
 29 30  2  0
 30 31  1  0
  6 32  2  0
 32 33  1  0
 33 34  2  0
  2 35  1  0
 35 36  1  0
 36 37  1  0
 34  4  1  0
 37 35  1  0
 30  8  1  0
 28 16  1  0
 26 20  1  0
M  END
$$$$
