
     RDKit          3D

 20 21  0  0  0  0  0  0  0  0999 V2000
  -19.2625   20.7811  -30.9611 C   0  0  0  0  0  0  0  0  0  0  0  0
  -20.1024   19.7414  -31.4252 O   0  0  0  0  0  0  0  0  0  0  0  0
  -20.0324   18.4954  -30.8444 C   0  0  0  0  0  0  0  0  0  0  0  0
  -21.1638   17.6981  -30.7392 C   0  0  0  0  0  0  0  0  0  0  0  0
  -21.0936   16.4491  -30.1571 C   0  0  0  0  0  0  0  0  0  0  0  0
  -19.8925   16.0156  -29.6884 C   0  0  0  0  0  0  0  0  0  0  0  0
  -18.7315   16.7676  -29.7663 C   0  0  0  0  0  0  0  0  0  0  0  0
  -17.5104   16.2482  -29.2542 N   0  0  0  0  0  0  0  0  0  0  0  0
  -17.2825   14.8798  -28.9871 C   0  0  0  0  0  0  0  0  0  0  0  0
  -18.2747   14.0950  -29.1238 O   0  0  0  0  0  0  0  0  0  0  0  0
  -16.0000   14.3122  -28.5698 C   0  0  0  0  0  0  0  0  0  0  0  0
  -15.7336   13.0355  -28.5220 C   0  0  0  0  0  0  0  0  0  0  0  0
  -14.4732   12.4143  -28.1759 C   0  0  0  0  0  0  0  0  0  0  0  0
  -13.4276   13.1373  -27.6283 C   0  0  0  0  0  0  0  0  0  0  0  0
  -12.2222   12.5790  -27.2897 C   0  0  0  0  0  0  0  0  0  0  0  0
  -11.9843   11.2328  -27.4829 C   0  0  0  0  0  0  0  0  0  0  0  0
  -10.4559   10.4941  -27.0602 Cl  0  0  0  0  0  0  0  0  0  0  0  0
  -13.0129   10.4975  -28.0267 C   0  0  0  0  0  0  0  0  0  0  0  0
  -14.2443   11.0722  -28.3716 C   0  0  0  0  0  0  0  0  0  0  0  0
  -18.8377   18.0119  -30.3545 C   0  0  0  0  0  0  0  0  0  0  0  0
  1  2  1  0
  2  3  1  0
  3  4  2  0
  4  5  1  0
  5  6  2  0
  6  7  1  0
  7  8  1  0
  8  9  1  0
  9 10  2  0
  9 11  1  0
 11 12  2  0
 12 13  1  0
 13 14  2  0
 14 15  1  0
 15 16  2  0
 16 17  1  0
 16 18  1  0
 18 19  2  0
  7 20  2  0
 20  3  1  0
 19 13  1  0
M  END
$$$$
