
     RDKit          3D

 31 31  0  0  0  0  0  0  0  0999 V2000
  -15.3773   48.8964  -21.2116 C   0  0  0  0  0  0  0  0  0  0  0  0
  -15.6791   47.5175  -20.6432 C   0  0  0  0  0  0  0  0  0  0  0  0
  -14.4917   46.8373  -20.5528 O   0  0  0  0  0  0  0  0  0  0  0  0
  -14.5918   45.5544  -20.0497 C   0  0  2  0  0  0  0  0  0  0  0  0
  -13.7979   45.3924  -18.7613 C   0  0  0  0  0  0  0  0  0  0  0  0
  -14.2908   46.2931  -17.7940 O   0  0  0  0  0  0  0  0  0  0  0  0
  -13.7445   46.3568  -16.5168 C   0  0  0  0  0  0  0  0  0  0  0  0
  -14.2703   47.2538  -15.6285 C   0  0  0  0  0  0  0  0  0  0  0  0
  -13.7399   47.3296  -14.3572 C   0  0  0  0  0  0  0  0  0  0  0  0
  -12.7084   46.5173  -14.0062 C   0  0  0  0  0  0  0  0  0  0  0  0
  -12.1254   46.5882  -12.6353 C   0  0  0  0  0  0  0  0  0  0  0  0
  -12.5436   45.4653  -11.9307 F   0  0  0  0  0  0  0  0  0  0  0  0
  -10.7454   46.6121  -12.7191 F   0  0  0  0  0  0  0  0  0  0  0  0
  -12.5365   47.7601  -12.0575 F   0  0  0  0  0  0  0  0  0  0  0  0
  -12.1819   45.6056  -14.9256 C   0  0  0  0  0  0  0  0  0  0  0  0
  -12.7123   45.5326  -16.1906 C   0  0  0  0  0  0  0  0  0  0  0  0
  -13.9343   44.5937  -21.0324 C   0  0  0  0  0  0  0  0  0  0  0  0
  -14.0623   42.9086  -20.3999 S   0  0  0  0  0  0  0  0  0  0  0  0
  -15.7804   42.4058  -20.5267 C   0  0  0  0  0  0  0  0  0  0  0  0
  -16.2048   41.2090  -19.9777 C   0  0  0  0  0  0  0  0  0  0  0  0
  -17.5057   40.8258  -20.1044 C   0  0  0  0  0  0  0  0  0  0  0  0
  -18.4618   41.5716  -20.7634 C   0  0  0  0  0  0  0  0  0  0  0  0
  -19.7842   41.1762  -20.8887 O   0  0  0  0  0  0  0  0  0  0  0  0
  -20.1578   39.9475  -20.3080 C   0  0  0  0  0  0  0  0  0  0  0  0
  -21.5844   39.7105  -20.5494 C   0  0  0  0  0  0  0  0  0  0  0  0
  -22.2805   40.5435  -21.1933 O   0  0  0  0  0  0  0  0  0  0  0  0
  -22.1844   38.5646  -20.0704 O   0  0  0  0  0  1  0  0  0  0  0  0
  -18.0269   42.7608  -21.3058 C   0  0  0  0  0  0  0  0  0  0  0  0
  -19.0135   43.6287  -22.0397 C   0  0  0  0  0  0  0  0  0  0  0  0
  -16.7067   43.1717  -21.1897 C   0  0  0  0  0  0  0  0  0  0  0  0
  -15.6699   44.4837  -18.9632 Na  0  0  0  0  0 15  0  0  0  0  0  0
  1  2  1  0
  2  3  1  0
  3  4  1  0
  4  5  1  1
  5  6  1  0
  6  7  1  0
  7  8  2  0
  8  9  1  0
  9 10  2  0
 10 11  1  0
 11 12  1  0
 11 13  1  0
 11 14  1  0
 10 15  1  0
 15 16  2  0
  4 17  1  0
 17 18  1  0
 18 19  1  0
 19 20  2  0
 20 21  1  0
 21 22  2  0
 22 23  1  0
 23 24  1  0
 24 25  1  0
 25 26  2  0
 25 27  1  0
 22 28  1  0
 28 29  1  0
 28 30  2  0
 16  7  1  0
 30 19  1  0
M  CHG  2  27  -1  31   1
M  END
$$$$
