
     RDKit          3D

 22 23  0  0  0  0  0  0  0  0999 V2000
  -31.5343   13.4381  -19.2924 C   0  0  0  0  0  0  0  0  0  0  0  0
  -30.5360   12.5875  -20.0609 C   0  0  0  0  0  0  0  0  0  0  0  0
  -30.1407   11.3664  -19.2767 C   0  0  0  0  0  0  0  0  0  0  0  0
  -31.3410   10.5369  -18.9260 C   0  0  0  0  0  0  0  0  0  0  0  0
  -32.1745   10.0741  -19.9213 C   0  0  0  0  0  0  0  0  0  0  0  0
  -33.2984    9.2958  -19.6154 C   0  0  0  0  0  0  0  0  0  0  0  0
  -33.5970    8.9746  -18.3125 C   0  0  0  0  0  0  0  0  0  0  0  0
  -34.7307    8.1910  -18.0203 O   0  0  0  0  0  0  0  0  0  0  0  0
  -32.7701    9.4330  -17.3190 C   0  0  0  0  0  0  0  0  0  0  0  0
  -33.0760    9.1059  -16.0053 O   0  0  0  0  0  0  0  0  0  0  0  0
  -31.6503   10.2087  -17.6266 C   0  0  0  0  0  0  0  0  0  0  0  0
  -29.3342   13.4418  -20.3218 C   0  0  0  0  0  0  0  0  0  0  0  0
  -28.2679   13.1011  -19.3030 C   0  0  0  0  0  0  0  0  0  0  0  0
  -28.8934   13.3307  -21.7314 C   0  0  0  0  0  0  0  0  0  0  0  0
  -28.5499   14.6760  -22.3223 C   0  0  0  0  0  0  0  0  0  0  0  0
  -27.3147   15.2544  -22.1376 C   0  0  0  0  0  0  0  0  0  0  0  0
  -27.0172   16.5041  -22.6952 C   0  0  0  0  0  0  0  0  0  0  0  0
  -27.9437   17.1847  -23.4380 C   0  0  0  0  0  0  0  0  0  0  0  0
  -27.6559   18.4320  -23.9982 O   0  0  0  0  0  0  0  0  0  0  0  0
  -29.1830   16.6099  -23.6262 C   0  0  0  0  0  0  0  0  0  0  0  0
  -30.1242   17.2970  -24.3785 O   0  0  0  0  0  0  0  0  0  0  0  0
  -29.4697   15.3732  -23.0713 C   0  0  0  0  0  0  0  0  0  0  0  0
  1  2  1  0
  2  3  1  0
  3  4  1  0
  4  5  2  0
  5  6  1  0
  6  7  2  0
  7  8  1  0
  7  9  1  0
  9 10  1  0
  9 11  2  0
  2 12  1  0
 12 13  1  0
 12 14  1  0
 14 15  1  0
 15 16  2  0
 16 17  1  0
 17 18  2  0
 18 19  1  0
 18 20  1  0
 20 21  1  0
 20 22  2  0
 11  4  1  0
 22 15  1  0
M  END
$$$$
