
     RDKit          3D

 26 28  0  0  0  0  0  0  0  0999 V2000
  -24.9040   11.1261  -18.7822 C   0  0  0  0  0  0  0  0  0  0  0  0
  -26.3766   10.9177  -18.8156 C   0  0  0  0  0  0  0  0  0  0  0  0
  -27.0506   10.9577  -20.0171 C   0  0  0  0  0  0  0  0  0  0  0  0
  -28.4170   10.7670  -20.0706 C   0  0  0  0  0  0  0  0  0  0  0  0
  -29.1766   10.5290  -18.9432 C   0  0  0  0  0  0  0  0  0  0  0  0
  -30.6252   10.3256  -18.9892 C   0  0  0  0  0  0  0  0  0  0  0  0
  -31.3304    9.2648  -18.4571 C   0  0  0  0  0  0  0  0  0  0  0  0
  -32.6397    9.4884  -18.7336 C   0  0  0  0  0  0  0  0  0  0  0  0
  -33.7672    8.6041  -18.3509 C   0  0  0  0  0  0  0  0  0  0  0  0
  -34.9052    9.0338  -19.0182 F   0  0  0  0  0  0  0  0  0  0  0  0
  -33.5299    7.3151  -18.7480 F   0  0  0  0  0  0  0  0  0  0  0  0
  -33.9282    8.6380  -16.9921 F   0  0  0  0  0  0  0  0  0  0  0  0
  -32.6949   10.6395  -19.4035 N   0  0  0  0  0  0  0  0  0  0  0  0
  -31.4922   11.1656  -19.5712 N   0  0  0  0  0  0  0  0  0  0  0  0
  -31.1285   12.3745  -20.2271 C   0  0  0  0  0  0  0  0  0  0  0  0
  -30.8379   12.4617  -21.5718 C   0  0  0  0  0  0  0  0  0  0  0  0
  -30.4867   13.6810  -22.1564 C   0  0  0  0  0  0  0  0  0  0  0  0
  -30.4222   14.8200  -21.4083 C   0  0  0  0  0  0  0  0  0  0  0  0
  -29.9724   16.3272  -22.2075 S   0  0  0  0  0  6  0  0  0  0  0  0
  -31.4147   17.0511  -22.8151 N   0  0  0  0  0  0  0  0  0  0  0  0
  -29.0030   16.1013  -23.3124 O   0  0  0  0  0  0  0  0  0  0  0  0
  -29.3613   17.2562  -21.2072 O   0  0  0  0  0  0  0  0  0  0  0  0
  -30.7058   14.7557  -20.0761 C   0  0  0  0  0  0  0  0  0  0  0  0
  -31.0574   13.5374  -19.4889 C   0  0  0  0  0  0  0  0  0  0  0  0
  -28.4930   10.4904  -17.7415 C   0  0  0  0  0  0  0  0  0  0  0  0
  -27.1195   10.6811  -17.6793 C   0  0  0  0  0  0  0  0  0  0  0  0
  1  2  1  0
  2  3  2  0
  3  4  1  0
  4  5  2  0
  5  6  1  0
  6  7  2  0
  7  8  1  0
  8  9  1  0
  9 10  1  0
  9 11  1  0
  9 12  1  0
  8 13  2  0
 13 14  1  0
 14 15  1  0
 15 16  2  0
 16 17  1  0
 17 18  2  0
 18 19  1  0
 19 20  1  0
 19 21  2  0
 19 22  2  0
 18 23  1  0
 23 24  2  0
  5 25  1  0
 25 26  2  0
 26  2  1  0
 14  6  1  0
 24 15  1  0
M  END
$$$$
