
     RDKit          3D

 56 61  0  0  0  0  0  0  0  0999 V2000
  -16.2229   11.0009  -28.1796 C   0  0  0  0  0  0  0  0  0  0  0  0
  -16.0765   12.4252  -27.9188 N   0  0  0  0  0  0  0  0  0  0  0  0
  -14.6722   12.7587  -27.7116 C   0  0  0  0  0  0  0  0  0  0  0  0
  -16.5974   13.2429  -28.9571 C   0  0  0  0  0  0  0  0  0  0  0  0
  -16.9749   14.6215  -28.6103 C   0  0  0  0  0  0  0  0  0  0  0  0
  -17.4767   15.5210  -29.6712 C   0  0  2  0  0  0  0  0  0  0  0  0
  -18.9663   15.3319  -29.9213 C   0  0  0  0  0  0  0  0  0  0  0  0
  -19.3409   14.5183  -31.4720 S   0  0  0  0  0  0  0  0  0  0  0  0
  -20.0241   12.9088  -31.3377 C   0  0  0  0  0  0  0  0  0  0  0  0
  -20.4554   12.2604  -32.4910 C   0  0  0  0  0  0  0  0  0  0  0  0
  -20.9805   10.9888  -32.4616 C   0  0  0  0  0  0  0  0  0  0  0  0
  -21.1004   10.3029  -31.2782 C   0  0  0  0  0  0  0  0  0  0  0  0
  -20.6788   10.9332  -30.1422 C   0  0  0  0  0  0  0  0  0  0  0  0
  -20.1440   12.2252  -30.1653 C   0  0  0  0  0  0  0  0  0  0  0  0
  -16.6810   15.8172  -30.7922 N   0  0  0  0  0  0  0  0  0  0  0  0
  -16.9138   16.7300  -31.8348 C   0  0  0  0  0  0  0  0  0  0  0  0
  -17.6882   16.4992  -32.9521 C   0  0  0  0  0  0  0  0  0  0  0  0
  -17.9734   17.4449  -33.9126 C   0  0  0  0  0  0  0  0  0  0  0  0
  -17.4849   18.7180  -33.8083 C   0  0  0  0  0  0  0  0  0  0  0  0
  -17.7925   19.9656  -34.9820 S   0  0  0  0  0  6  0  0  0  0  0  0
  -16.9022   21.1497  -34.7313 O   0  0  0  0  0  0  0  0  0  0  0  0
  -19.2381   20.3822  -34.8204 O   0  0  0  0  0  0  0  0  0  0  0  0
  -17.5530   19.3202  -36.5559 N   0  0  0  0  0  0  0  0  0  0  0  0
  -16.2661   18.9349  -36.9655 C   0  0  0  0  0  0  0  0  0  0  0  0
  -15.4058   18.6697  -36.0860 O   0  0  0  0  0  0  0  0  0  0  0  0
  -15.9020   18.8335  -38.3933 C   0  0  0  0  0  0  0  0  0  0  0  0
  -15.1657   17.7459  -38.8346 C   0  0  0  0  0  0  0  0  0  0  0  0
  -14.8161   17.6249  -40.1751 C   0  0  0  0  0  0  0  0  0  0  0  0
  -15.1849   18.5718  -41.1025 C   0  0  0  0  0  0  0  0  0  0  0  0
  -14.8297   18.4445  -42.4810 N   0  0  0  0  0  0  0  0  0  0  0  0
  -13.5080   18.6717  -42.9610 C   0  0  0  0  0  0  0  0  0  0  0  0
  -13.3287   18.9212  -44.4082 C   0  0  0  0  0  0  0  0  0  0  0  0
  -14.4258   18.5835  -45.2525 N   0  0  0  0  0  0  0  0  0  0  0  0
  -14.0631   18.1633  -46.5913 C   0  0  0  0  0  0  0  0  0  0  0  0
  -13.0317   17.1405  -46.6274 C   0  0  0  0  0  0  0  0  0  0  0  0
  -11.8931   17.2974  -45.8500 C   0  0  0  0  0  0  0  0  0  0  0  0
  -10.8691   16.3765  -45.8577 C   0  0  0  0  0  0  0  0  0  0  0  0
  -10.9866   15.2636  -46.6676 C   0  0  0  0  0  0  0  0  0  0  0  0
  -12.1198   15.0830  -47.4569 C   0  0  0  0  0  0  0  0  0  0  0  0
  -13.1472   16.0363  -47.4291 C   0  0  0  0  0  0  0  0  0  0  0  0
  -14.2989   15.7356  -48.2637 C   0  0  0  0  0  0  0  0  0  0  0  0
  -14.3164   16.0556  -49.6178 C   0  0  0  0  0  0  0  0  0  0  0  0
  -15.3999   15.7415  -50.4082 C   0  0  0  0  0  0  0  0  0  0  0  0
  -16.5081   15.1056  -49.9167 C   0  0  0  0  0  0  0  0  0  0  0  0
  -17.8450   14.7382  -50.9764 Cl  0  0  0  0  0  0  0  0  0  0  0  0
  -16.5066   14.7815  -48.5787 C   0  0  0  0  0  0  0  0  0  0  0  0
  -15.4094   15.0966  -47.7687 C   0  0  0  0  0  0  0  0  0  0  0  0
  -15.2797   17.5665  -44.6623 C   0  0  0  0  0  0  0  0  0  0  0  0
  -15.8851   18.0599  -43.3863 C   0  0  0  0  0  0  0  0  0  0  0  0
  -15.9114   19.6342  -40.6323 C   0  0  0  0  0  0  0  0  0  0  0  0
  -16.2721   19.7786  -39.3063 C   0  0  0  0  0  0  0  0  0  0  0  0
  -16.7157   19.0076  -32.7324 C   0  0  0  0  0  0  0  0  0  0  0  0
  -16.4253   18.0500  -31.7598 C   0  0  0  0  0  0  0  0  0  0  0  0
  -15.6049   18.4267  -30.6682 N   0  0  0  0  0  4  0  0  0  0  0  0
  -15.0133   19.4935  -30.6027 O   0  0  0  0  0  0  0  0  0  0  0  0
  -15.4914   17.5909  -29.5621 O   0  0  0  0  0  1  0  0  0  0  0  0
  1  2  1  0
  2  3  1  0
  2  4  1  0
  4  5  1  0
  6  5  1  6
  6  7  1  0
  7  8  1  0
  8  9  1  0
  9 10  2  0
 10 11  1  0
 11 12  2  0
 12 13  1  0
 13 14  2  0
  6 15  1  0
 15 16  1  0
 16 17  2  0
 17 18  1  0
 18 19  2  0
 19 20  1  0
 20 21  2  0
 20 22  2  0
 20 23  1  0
 23 24  1  0
 24 25  2  0
 24 26  1  0
 26 27  2  0
 27 28  1  0
 28 29  2  0
 29 30  1  0
 30 31  1  0
 31 32  1  0
 32 33  1  0
 33 34  1  0
 34 35  1  0
 35 36  2  0
 36 37  1  0
 37 38  2  0
 38 39  1  0
 39 40  2  0
 40 41  1  0
 41 42  2  0
 42 43  1  0
 43 44  2  0
 44 45  1  0
 44 46  1  0
 46 47  2  0
 33 48  1  0
 48 49  1  0
 29 50  1  0
 50 51  2  0
 19 52  1  0
 52 53  2  0
 53 54  1  0
 54 55  2  0
 54 56  1  0
 14  9  1  0
 53 16  1  0
 51 26  1  0
 49 30  1  0
 40 35  1  0
 47 41  1  0
M  CHG  2  54   1  56  -1
M  END
$$$$
