
     RDKit          3D

 19 20  0  0  0  0  0  0  0  0999 V2000
    5.4686   44.4748  -37.6149 Cl  0  0  0  0  0  0  0  0  0  0  0  0
    3.6061   44.3839  -36.6146 O   0  0  0  0  0  0  0  0  0  0  0  0
    4.6424   43.8846  -37.1584 C   0  0  0  0  0  0  0  0  0  0  0  0
    5.6921   44.7663  -37.4289 N   0  0  0  0  0  0  0  0  0  0  0  0
    5.6547   46.1808  -37.1271 C   0  0  1  0  0  0  0  0  0  0  0  0
    6.7597   46.6022  -36.1859 C   0  0  0  0  0  0  0  0  0  0  0  0
    7.1921   47.9457  -36.5149 N   0  0  0  0  0  0  0  0  0  0  0  0
    6.0835   48.8283  -36.7988 C   0  0  0  0  0  0  0  0  0  0  0  0
    5.3009   48.4113  -38.0204 C   0  0  0  0  0  0  0  0  0  0  0  0
    5.7938   47.0077  -38.3877 C   0  0  0  0  0  0  0  0  0  0  0  0
    7.2580   47.1795  -38.7755 C   0  0  0  0  0  0  0  0  0  0  0  0
    8.0455   47.8518  -37.6822 C   0  0  0  0  0  0  0  0  0  0  0  0
    4.6126   42.4569  -37.4341 C   0  0  0  0  0  0  0  0  0  0  0  0
    5.7182   41.8828  -38.0227 C   0  0  0  0  0  0  0  0  0  0  0  0
    5.7558   40.5281  -38.3125 C   0  0  0  0  0  0  0  0  0  0  0  0
    4.6767   39.7571  -38.0070 C   0  0  0  0  0  0  0  0  0  0  0  0
    4.6718   38.0481  -38.3503 Cl  0  0  0  0  0  0  0  0  0  0  0  0
    3.5803   40.3323  -37.4222 C   0  0  0  0  0  0  0  0  0  0  0  0
    3.5172   41.6742  -37.1241 C   0  0  0  0  0  0  0  0  0  0  0  0
  2  3  2  0
  3  4  1  0
  5  4  1  6
  5  6  1  0
  6  7  1  0
  7  8  1  0
  8  9  1  0
  9 10  1  0
 10 11  1  0
 11 12  1  0
  3 13  1  0
 13 14  2  0
 14 15  1  0
 15 16  2  0
 16 17  1  0
 16 18  1  0
 18 19  2  0
 10  5  1  0
 19 13  1  0
 12  7  1  0
M  END
$$$$
