
     RDKit          3D

 33 36  0  0  0  0  0  0  0  0999 V2000
  -17.2360   45.2792  -25.9810 C   0  0  0  0  0  0  0  0  0  0  0  0
  -18.1607   44.7259  -25.0020 N   0  0  0  0  0  0  0  0  0  0  0  0
  -18.5879   45.7983  -24.1463 C   0  0  0  0  0  0  0  0  0  0  0  0
  -19.2860   44.0838  -25.6684 C   0  0  0  0  0  0  0  0  0  0  0  0
  -19.8473   43.0685  -24.7161 C   0  0  0  0  0  0  0  0  0  0  0  0
  -20.9675   43.4216  -23.9918 C   0  0  0  0  0  0  0  0  0  0  0  0
  -21.5012   42.5083  -23.1072 C   0  0  0  0  0  0  0  0  0  0  0  0
  -20.8856   41.2662  -22.9825 C   0  0  0  0  0  0  0  0  0  0  0  0
  -19.7666   40.8950  -23.6968 C   0  0  0  0  0  0  0  0  0  0  0  0
  -19.1267   39.6362  -23.5752 N   0  0  0  0  0  0  0  0  0  0  0  0
  -19.8161   38.4486  -23.1089 C   0  0  0  0  0  0  0  0  0  0  0  0
  -19.1114   37.5796  -22.4130 C   0  0  0  0  0  0  0  0  0  0  0  0
  -17.8786   37.8973  -21.6520 C   0  0  0  0  0  0  0  0  0  0  0  0
  -17.3506   39.0340  -21.6202 O   0  0  0  0  0  0  0  0  0  0  0  0
  -17.4720   36.7011  -21.0186 N   0  0  0  0  0  0  0  0  0  0  0  0
  -18.4002   35.6805  -21.3594 C   0  0  0  0  0  0  0  0  0  0  0  0
  -18.4413   34.3492  -20.9734 C   0  0  0  0  0  0  0  0  0  0  0  0
  -19.4534   33.5210  -21.4035 C   0  0  0  0  0  0  0  0  0  0  0  0
  -19.4549   32.1290  -20.9749 C   0  0  0  0  0  0  0  0  0  0  0  0
  -19.8903   31.8393  -19.8438 O   0  0  0  0  0  0  0  0  0  0  0  0
  -18.9577   31.1484  -21.8650 N   0  0  0  0  0  0  0  0  0  0  0  0
  -18.9653   29.7520  -21.4095 C   0  0  0  0  0  0  0  0  0  0  0  0
  -18.4587   31.4981  -23.1793 C   0  0  0  0  0  0  0  0  0  0  0  0
  -20.4303   34.0223  -22.2219 C   0  0  0  0  0  0  0  0  0  0  0  0
  -20.4188   35.3441  -22.6256 C   0  0  0  0  0  0  0  0  0  0  0  0
  -19.4011   36.1597  -22.1915 C   0  0  0  0  0  0  0  0  0  0  0  0
  -21.1933   38.2097  -23.5093 C   0  0  0  0  0  0  0  0  0  0  0  0
  -21.5024   37.9024  -24.8047 C   0  0  0  0  0  0  0  0  0  0  0  0
  -22.7999   37.5944  -25.1394 C   0  0  0  0  0  0  0  0  0  0  0  0
  -23.8131   37.5826  -24.2119 C   0  0  0  0  0  0  0  0  0  0  0  0
  -23.4702   37.8972  -22.9102 C   0  0  0  0  0  0  0  0  0  0  0  0
  -22.1824   38.2070  -22.5573 C   0  0  0  0  0  0  0  0  0  0  0  0
  -19.2482   41.8313  -24.5808 C   0  0  0  0  0  0  0  0  0  0  0  0
  1  2  1  0
  2  3  1  0
  2  4  1  0
  4  5  1  0
  5  6  2  0
  6  7  1  0
  7  8  2  0
  8  9  1  0
  9 10  1  0
 10 11  1  0
 11 12  2  0
 12 13  1  0
 13 14  2  0
 13 15  1  0
 15 16  1  0
 16 17  2  0
 17 18  1  0
 18 19  1  0
 19 20  2  0
 19 21  1  0
 21 22  1  0
 21 23  1  0
 18 24  2  0
 24 25  1  0
 25 26  2  0
 11 27  1  0
 27 28  2  0
 28 29  1  0
 29 30  2  0
 30 31  1  0
 31 32  2  0
  9 33  2  0
 33  5  1  0
 26 12  1  0
 32 27  1  0
 26 16  1  0
M  END
$$$$
