
     RDKit          3D

 46 49  0  0  0  0  0  0  0  0999 V2000
  -14.3811   18.7009  -42.7595 C   0  0  0  0  0  0  0  0  0  0  0  0
  -15.0877   19.8256  -43.4057 C   0  0  0  0  0  0  0  0  0  0  0  0
  -14.4333   20.5221  -44.4199 C   0  0  0  0  0  0  0  0  0  0  0  0
  -15.0699   21.5743  -45.0370 C   0  0  0  0  0  0  0  0  0  0  0  0
  -16.3421   21.9076  -44.6293 C   0  0  0  0  0  0  0  0  0  0  0  0
  -16.9899   21.2279  -43.6336 C   0  0  0  0  0  0  0  0  0  0  0  0
  -18.3724   21.6233  -43.2173 C   0  0  0  0  0  0  0  0  0  0  0  0
  -16.3605   20.1730  -43.0104 C   0  0  0  0  0  0  0  0  0  0  0  0
  -16.9349   19.4247  -41.9938 O   0  0  0  0  0  0  0  0  0  0  0  0
  -17.4413   20.0105  -40.8217 C   0  0  0  0  0  0  0  0  0  0  0  0
  -17.7651   19.0226  -39.7814 C   0  0  0  0  0  0  0  0  0  0  0  0
  -18.6828   18.1682  -39.9258 O   0  0  0  0  0  0  0  0  0  0  0  0
  -17.0647   18.9615  -38.5369 N   0  0  0  0  0  0  0  0  0  0  0  0
  -17.4346   17.9912  -37.5137 C   0  0  1  0  0  0  0  0  0  0  0  0
  -16.1843   17.7869  -36.6728 C   0  0  0  0  0  0  0  0  0  0  0  0
  -15.1048   17.0999  -37.4028 C   0  0  0  0  0  0  0  0  0  0  0  0
  -15.1277   15.7372  -37.5503 C   0  0  0  0  0  0  0  0  0  0  0  0
  -14.0983   15.0974  -38.2450 C   0  0  0  0  0  0  0  0  0  0  0  0
  -13.0604   15.8100  -38.7851 C   0  0  0  0  0  0  0  0  0  0  0  0
  -13.0209   17.1645  -38.6486 C   0  0  0  0  0  0  0  0  0  0  0  0
  -14.0342   17.7926  -37.9650 C   0  0  0  0  0  0  0  0  0  0  0  0
  -18.5962   18.5279  -36.7503 C   0  0  1  0  0  0  0  0  0  0  0  0
  -18.2702   19.8312  -36.3531 O   0  0  0  0  0  0  0  0  0  0  0  0
  -19.8306   18.6838  -37.6424 C   0  0  0  0  0  0  0  0  0  0  0  0
  -21.0791   18.5899  -36.7883 C   0  0  2  0  0  0  0  0  0  0  0  0
  -22.0897   17.6890  -37.4715 C   0  0  0  0  0  0  0  0  0  0  0  0
  -23.0771   17.1447  -36.5096 C   0  0  0  0  0  0  0  0  0  0  0  0
  -22.9187   15.9051  -35.9101 C   0  0  0  0  0  0  0  0  0  0  0  0
  -23.8203   15.3923  -35.0251 C   0  0  0  0  0  0  0  0  0  0  0  0
  -24.9465   16.1040  -34.6871 C   0  0  0  0  0  0  0  0  0  0  0  0
  -25.1384   17.3324  -35.2580 C   0  0  0  0  0  0  0  0  0  0  0  0
  -24.2229   17.8318  -36.1450 C   0  0  0  0  0  0  0  0  0  0  0  0
  -21.6377   19.8844  -36.5128 N   0  0  0  0  0  0  0  0  0  0  0  0
  -21.4293   20.5365  -35.2674 C   0  0  0  0  0  0  0  0  0  0  0  0
  -20.7145   19.9988  -34.3581 O   0  0  0  0  0  0  0  0  0  0  0  0
  -22.0072   21.8617  -34.9247 C   0  0  2  0  0  0  0  0  0  0  0  0
  -22.7133   21.7743  -33.6154 C   0  0  0  0  0  0  0  0  0  0  0  0
  -21.8300   21.1787  -32.5240 C   0  0  0  0  0  0  0  0  0  0  0  0
  -23.4118   23.0323  -33.1818 C   0  0  0  0  0  0  0  0  0  0  0  0
  -22.6518   22.5451  -35.9769 N   0  0  0  0  0  0  0  0  0  0  0  0
  -24.1215   22.4963  -36.1633 C   0  0  0  0  0  0  0  0  0  0  0  0
  -24.4664   22.2033  -37.5845 C   0  0  0  0  0  0  0  0  0  0  0  0
  -23.7537   22.9945  -38.6191 C   0  0  0  0  0  0  0  0  0  0  0  0
  -22.7672   23.8538  -38.0312 N   0  0  0  0  0  0  0  0  0  0  0  0
  -21.9636   23.3471  -36.9552 C   0  0  0  0  0  0  0  0  0  0  0  0
  -20.7541   23.5683  -36.8472 O   0  0  0  0  0  0  0  0  0  0  0  0
  1  2  1  0
  2  3  2  0
  3  4  1  0
  4  5  2  0
  5  6  1  0
  6  7  1  0
  6  8  2  0
  8  9  1  0
  9 10  1  0
 10 11  1  0
 11 12  2  0
 11 13  1  0
 13 14  1  0
 14 15  1  1
 15 16  1  0
 16 17  2  0
 17 18  1  0
 18 19  2  0
 19 20  1  0
 20 21  2  0
 14 22  1  0
 22 23  1  6
 22 24  1  0
 25 24  1  6
 25 26  1  0
 26 27  1  0
 27 28  2  0
 28 29  1  0
 29 30  2  0
 30 31  1  0
 31 32  2  0
 25 33  1  0
 33 34  1  0
 34 35  2  0
 34 36  1  0
 36 37  1  1
 37 38  1  0
 37 39  1  0
 36 40  1  0
 40 41  1  0
 41 42  1  0
 42 43  1  0
 43 44  1  0
 44 45  1  0
 45 46  2  0
  8  2  1  0
 21 16  1  0
 32 27  1  0
 45 40  1  0
M  END
$$$$
