
     RDKit          3D

 16 15  0  0  0  0  0  0  0  0999 V2000
  -17.0365   36.0480  -21.2201 C   0  0  0  0  0  0  0  0  0  0  0  0
  -18.4430   36.0800  -21.8442 C   0  0  0  0  0  0  0  0  0  0  0  0
  -18.3947   36.8448  -23.1219 C   0  0  0  0  0  0  0  0  0  0  0  0
  -18.0169   38.1884  -23.0983 N   0  0  0  0  0  0  0  0  0  0  0  0
  -18.8517   39.2170  -22.6398 C   0  0  1  0  0  0  0  0  0  0  0  0
  -19.2473   39.1344  -21.2210 C   0  0  0  0  0  0  0  0  0  0  0  0
  -19.8472   40.4912  -20.7992 C   0  0  0  0  0  0  0  0  0  0  0  0
  -18.6505   41.4060  -20.6945 C   0  0  0  0  0  0  0  0  0  0  0  0
  -18.1795   42.2118  -19.7774 N   0  0  0  0  0  0  0  0  0  0  0  0
  -17.2392   42.9006  -19.7993 C   0  0  0  0  0  0  0  0  0  0  0  0
  -16.5220   43.8639  -18.9552 N   0  0  0  0  0  0  0  0  0  0  0  0
  -16.5590   42.5492  -21.5114 S   0  0  0  0  0  0  0  0  0  0  0  0
  -17.8843   41.3851  -21.8728 C   0  0  0  0  0  0  0  0  0  0  0  0
  -18.2442   40.5586  -23.0208 C   0  0  0  0  0  0  0  0  0  0  0  0
  -18.2318   39.9910  -21.3487 Cl  0  0  0  0  0  0  0  0  0  0  0  0
  -18.2318   39.9921  -21.3485 Cl  0  0  0  0  0  0  0  0  0  0  0  0
  1  2  1  0
  2  3  1  0
  3  4  1  0
  5  4  1  1
  5  6  1  0
  6  7  1  0
  7  8  1  0
  8  9  1  0
  9 10  2  0
 10 11  1  0
 10 12  1  0
 12 13  1  0
 13 14  1  0
 14  5  1  0
 13  8  2  0
M  END
$$$$
