
     RDKit          3D

 28 32  0  0  0  0  0  0  0  0999 V2000
  -20.2133   43.6888  -24.2528 C   0  0  0  0  0  0  0  0  0  0  0  0
  -20.4549   42.9967  -23.0721 N   0  0  0  0  0  0  0  0  0  0  0  0
  -21.5182   43.4513  -22.2394 C   0  0  0  0  0  0  0  0  0  0  0  0
  -19.4248   42.2716  -22.4319 C   0  0  2  0  0  0  0  0  0  0  0  0
  -18.5208   43.2817  -21.8297 C   0  0  0  0  0  0  0  0  0  0  0  0
  -18.7179   43.9396  -20.6482 C   0  0  0  0  0  0  0  0  0  0  0  0
  -17.7837   44.8779  -20.1890 C   0  0  0  0  0  0  0  0  0  0  0  0
  -16.6507   45.1488  -20.9271 C   0  0  0  0  0  0  0  0  0  0  0  0
  -16.4466   44.4875  -22.1205 C   0  0  0  0  0  0  0  0  0  0  0  0
  -17.3733   43.5837  -22.5356 C   0  0  0  0  0  0  0  0  0  0  0  0
  -18.7983   41.3310  -23.3902 C   0  0  0  0  0  0  0  0  0  0  0  0
  -19.4451   39.9417  -23.3045 C   0  0  0  0  0  0  0  0  0  0  0  0
  -18.9411   39.2617  -22.0288 C   0  0  2  0  0  0  0  0  0  0  0  0
  -19.0127   40.3197  -20.9177 C   0  0  0  0  0  0  0  0  0  0  0  0
  -19.9697   41.4443  -21.2828 C   0  0  0  0  0  0  0  0  0  0  0  0
  -17.6292   38.9591  -22.2406 O   0  0  0  0  0  0  0  0  0  0  0  0
  -17.3319   37.6829  -22.6327 C   0  0  0  0  0  0  0  0  0  0  0  0
  -17.7663   36.7630  -21.4806 C   0  0  0  0  0  0  0  0  0  0  0  0
  -19.2396   36.9015  -21.4325 C   0  0  0  0  0  0  0  0  0  0  0  0
  -20.2390   35.9929  -21.1541 C   0  0  0  0  0  0  0  0  0  0  0  0
  -20.2852   34.6689  -20.8254 C   0  0  0  0  0  0  0  0  0  0  0  0
  -21.4915   33.9974  -20.5942 C   0  0  0  0  0  0  0  0  0  0  0  0
  -21.4720   32.6741  -20.2693 F   0  0  0  0  0  0  0  0  0  0  0  0
  -22.6788   34.6922  -20.7005 C   0  0  0  0  0  0  0  0  0  0  0  0
  -22.6284   36.0457  -21.0367 C   0  0  0  0  0  0  0  0  0  0  0  0
  -21.4264   36.6851  -21.2598 C   0  0  0  0  0  0  0  0  0  0  0  0
  -21.1163   37.9577  -21.5902 N   0  0  0  0  0  0  0  0  0  0  0  0
  -19.8034   38.1146  -21.7005 C   0  0  0  0  0  0  0  0  0  0  0  0
  1  2  1  0
  2  3  1  0
  4  2  1  6
  4  5  1  0
  5  6  2  0
  6  7  1  0
  7  8  2  0
  8  9  1  0
  9 10  2  0
  4 11  1  0
 11 12  1  0
 13 12  1  6
 13 14  1  0
 14 15  1  0
 13 16  1  0
 16 17  1  0
 17 18  1  0
 18 19  1  0
 19 20  1  0
 20 21  2  0
 21 22  1  0
 22 23  1  0
 22 24  2  0
 24 25  1  0
 25 26  2  0
 26 27  1  0
 27 28  1  0
 15  4  1  0
 28 19  2  0
 10  5  1  0
 28 13  1  0
 26 20  1  0
M  END
$$$$
