
     RDKit          3D

 25 28  0  0  0  0  0  0  0  0999 V2000
  -12.7779   45.8269  -20.0579 Cl  0  0  0  0  0  0  0  0  0  0  0  0
  -12.9436   44.1705  -19.5177 C   0  0  0  0  0  0  0  0  0  0  0  0
  -11.8021   43.4017  -19.4338 C   0  0  0  0  0  0  0  0  0  0  0  0
  -11.9311   42.0989  -19.0022 C   0  0  0  0  0  0  0  0  0  0  0  0
  -13.1640   41.5833  -18.6656 C   0  0  0  0  0  0  0  0  0  0  0  0
  -14.2882   42.3864  -18.7628 C   0  0  0  0  0  0  0  0  0  0  0  0
  -14.2073   43.6923  -19.1889 C   0  0  0  0  0  0  0  0  0  0  0  0
  -15.4163   44.5486  -19.2927 C   0  0  0  0  0  0  0  0  0  0  0  0
  -15.3006   45.3695  -20.5213 C   0  0  0  0  0  0  0  0  0  0  0  0
  -15.6623   44.8516  -21.7547 C   0  0  0  0  0  0  0  0  0  0  0  0
  -15.5783   45.5549  -22.9278 C   0  0  0  0  0  0  0  0  0  0  0  0
  -15.1054   46.8482  -22.8585 C   0  0  0  0  0  0  0  0  0  0  0  0
  -14.7396   47.3822  -21.6369 C   0  0  0  0  0  0  0  0  0  0  0  0
  -14.8301   46.6597  -20.4614 C   0  0  0  0  0  0  0  0  0  0  0  0
  -15.4425   45.5572  -18.1675 C   0  0  0  0  0  0  0  0  0  0  0  0
  -14.6808   45.4265  -17.0537 C   0  0  0  0  0  0  0  0  0  0  0  0
  -14.7672   46.4078  -16.0751 C   0  0  0  0  0  0  0  0  0  0  0  0
  -15.5961   47.5014  -16.2001 C   0  0  0  0  0  0  0  0  0  0  0  0
  -16.3514   47.5969  -17.3448 C   0  0  0  0  0  0  0  0  0  0  0  0
  -16.2827   46.6373  -18.3281 C   0  0  0  0  0  0  0  0  0  0  0  0
  -16.6293   43.7685  -19.2125 N   0  0  0  0  0  0  0  0  0  0  0  0
  -16.6968   42.4044  -19.1766 C   0  0  0  0  0  0  0  0  0  0  0  0
  -18.0121   41.9992  -19.0902 C   0  0  0  0  0  0  0  0  0  0  0  0
  -18.7457   43.1549  -19.0744 C   0  0  0  0  0  0  0  0  0  0  0  0
  -17.8865   44.1521  -19.1479 N   0  0  0  0  0  0  0  0  0  0  0  0
  1  2  1  0
  2  3  2  0
  3  4  1  0
  4  5  2  0
  5  6  1  0
  6  7  2  0
  7  8  1  0
  8  9  1  0
  9 10  2  0
 10 11  1  0
 11 12  2  0
 12 13  1  0
 13 14  2  0
  8 15  1  0
 15 16  2  0
 16 17  1  0
 17 18  2  0
 18 19  1  0
 19 20  2  0
  8 21  1  0
 21 22  1  0
 22 23  2  0
 23 24  1  0
 24 25  2  0
  7  2  1  0
 14  9  1  0
 20 15  1  0
 25 21  1  0
M  END
$$$$
