
     RDKit          3D

 18 19  0  0  0  0  0  0  0  0999 V2000
  -16.7404   16.0976  -32.8560 C   0  0  0  0  0  0  0  0  0  0  0  0
  -17.1660   14.7037  -32.4556 C   0  0  0  0  0  0  0  0  0  0  0  0
  -16.4037   14.2048  -31.3743 O   0  0  0  0  0  0  0  0  0  0  0  0
  -16.7414   14.3513  -30.0514 C   0  0  0  0  0  0  0  0  0  0  0  0
  -17.7421   15.0150  -29.7462 O   0  0  0  0  0  0  0  0  0  0  0  0
  -15.8851   13.7002  -29.0008 C   0  0  0  0  0  0  0  0  0  0  0  0
  -16.4277   13.5289  -27.7182 C   0  0  0  0  0  0  0  0  0  0  0  0
  -17.7493   13.9082  -27.2657 N   0  0  0  0  0  0  0  0  0  0  0  0
  -15.1573   12.7501  -26.7642 S   0  0  0  0  0  0  0  0  0  0  0  0
  -13.9472   12.7015  -28.1772 C   0  0  0  0  0  0  0  0  0  0  0  0
  -12.6413   12.1173  -27.9616 C   0  0  0  0  0  0  0  0  0  0  0  0
  -11.5091   12.8606  -27.8351 C   0  0  0  0  0  0  0  0  0  0  0  0
  -10.2812   12.2100  -27.6568 C   0  0  0  0  0  0  0  0  0  0  0  0
  -10.1760   10.8507  -27.6039 C   0  0  0  0  0  0  0  0  0  0  0  0
  -11.3236   10.1071  -27.7316 C   0  0  0  0  0  0  0  0  0  0  0  0
  -12.5325   10.7265  -27.9069 C   0  0  0  0  0  0  0  0  0  0  0  0
  -14.6252   13.2670  -29.1931 C   0  0  0  0  0  0  0  0  0  0  0  0
  -13.9661   13.3905  -30.5700 C   0  0  0  0  0  0  0  0  0  0  0  0
  1  2  1  0
  2  3  1  0
  3  4  1  0
  4  5  2  0
  4  6  1  0
  6  7  2  0
  7  8  1  0
  7  9  1  0
  9 10  1  0
 10 11  1  0
 11 12  2  0
 12 13  1  0
 13 14  2  0
 14 15  1  0
 15 16  2  0
 10 17  2  0
 17 18  1  0
 17  6  1  0
 16 11  1  0
M  END
$$$$
