
     RDKit          3D

 22 24  0  0  0  0  0  0  0  0999 V2000
  -18.9770   47.9078  -21.2908 C   0  0  0  0  0  0  0  0  0  0  0  0
  -19.0482   46.5062  -20.7241 C   0  0  0  0  0  0  0  0  0  0  0  0
  -20.5139   46.2199  -20.3724 C   0  0  0  0  0  0  0  0  0  0  0  0
  -18.6589   45.5365  -21.6234 O   0  0  0  0  0  0  0  0  0  0  0  0
  -17.2564   45.5043  -21.5085 C   0  0  2  0  0  0  0  0  0  0  0  0
  -16.6684   44.2227  -21.9573 C   0  0  0  0  0  0  0  0  0  0  0  0
  -15.8405   43.6002  -21.0660 O   0  0  0  0  0  0  0  0  0  0  0  0
  -16.3177   43.5225  -19.7867 C   0  0  1  0  0  0  0  0  0  0  0  0
  -17.5339   42.6600  -19.6305 C   0  0  0  0  0  0  0  0  0  0  0  0
  -17.2554   41.3122  -19.7631 O   0  0  0  0  0  0  0  0  0  0  0  0
  -18.5402   40.3282  -19.4296 S   0  0  0  0  0  6  0  0  0  0  0  0
  -19.0553   40.6333  -17.8094 N   0  0  0  0  0  0  0  0  0  0  0  0
  -18.1989   38.8685  -19.5249 O   0  0  0  0  0  0  0  0  0  0  0  0
  -19.7300   40.6134  -20.3208 O   0  0  0  0  0  0  0  0  0  0  0  0
  -15.3014   42.9598  -18.9932 O   0  0  0  0  0  0  0  0  0  0  0  0
  -14.5286   43.9929  -18.5290 C   0  0  0  0  0  0  0  0  0  0  0  0
  -14.3165   43.9233  -17.0286 C   0  0  0  0  0  0  0  0  0  0  0  0
  -13.1705   43.9323  -19.2271 C   0  0  0  0  0  0  0  0  0  0  0  0
  -15.1548   45.1797  -18.8115 O   0  0  0  0  0  0  0  0  0  0  0  0
  -16.4577   44.8801  -19.2072 C   0  0  1  0  0  0  0  0  0  0  0  0
  -16.9720   45.9242  -20.1288 C   0  0  2  0  0  0  0  0  0  0  0  0
  -18.2200   46.3712  -19.6355 O   0  0  0  0  0  0  0  0  0  0  0  0
  1  2  1  0
  2  3  1  0
  2  4  1  0
  4  5  1  0
  5  6  1  1
  6  7  1  0
  7  8  1  0
  8  9  1  6
  9 10  1  0
 10 11  1  0
 11 12  1  0
 11 13  2  0
 11 14  2  0
  8 15  1  0
 15 16  1  0
 16 17  1  0
 16 18  1  0
 16 19  1  0
 20 19  1  6
 20 21  1  0
 21 22  1  1
 22  2  1  0
 21  5  1  0
 20  8  1  0
M  END
$$$$
