
     RDKit          3D

 26 29  0  0  0  0  0  0  0  0999 V2000
  -20.0700   40.0636  -21.8968 N   0  0  0  0  0  0  0  0  0  0  0  0
  -18.6830   39.6010  -22.1285 C   0  0  2  0  0  0  0  0  0  0  0  0
  -17.8789   40.5919  -22.8419 C   0  0  0  0  0  0  0  0  0  0  0  0
  -18.2771   41.9578  -23.1102 C   0  0  0  0  0  0  0  0  0  0  0  0
  -18.3371   43.0221  -22.1281 C   0  0  0  0  0  0  0  0  0  0  0  0
  -17.9236   42.7897  -20.8054 C   0  0  0  0  0  0  0  0  0  0  0  0
  -18.1099   43.7531  -19.8529 C   0  0  0  0  0  0  0  0  0  0  0  0
  -18.6950   44.9626  -20.1476 C   0  0  0  0  0  0  0  0  0  0  0  0
  -19.0842   45.1726  -21.4427 C   0  0  0  0  0  0  0  0  0  0  0  0
  -18.9164   44.2233  -22.4662 C   0  0  0  0  0  0  0  0  0  0  0  0
  -19.3128   44.5605  -23.7538 O   0  0  0  0  0  0  0  0  0  0  0  0
  -19.0928   43.6211  -24.7586 C   0  0  0  0  0  0  0  0  0  0  0  0
  -19.4563   43.9559  -26.0667 C   0  0  0  0  0  0  0  0  0  0  0  0
  -19.2606   43.1182  -27.1228 C   0  0  0  0  0  0  0  0  0  0  0  0
  -18.6832   41.9054  -26.8703 C   0  0  0  0  0  0  0  0  0  0  0  0
  -18.3275   41.5698  -25.5919 C   0  0  0  0  0  0  0  0  0  0  0  0
  -18.5179   42.3981  -24.5053 C   0  0  0  0  0  0  0  0  0  0  0  0
  -18.9562   38.5238  -23.2318 C   0  0  0  0  0  0  0  0  0  0  0  0
  -20.0784   38.3476  -23.6880 O   0  0  0  0  0  0  0  0  0  0  0  0
  -17.8944   37.7622  -23.6907 O   0  0  0  0  0  0  0  0  0  0  0  0
  -18.2931   38.7934  -20.9900 C   0  0  1  0  0  0  0  0  0  0  0  0
  -18.7257   38.8959  -19.5880 C   0  0  0  0  0  0  0  0  0  0  0  0
  -19.3682   37.8488  -20.4234 C   0  0  2  0  0  0  0  0  0  0  0  0
  -18.9964   36.4276  -20.2721 C   0  0  0  0  0  0  0  0  0  0  0  0
  -17.9713   35.9863  -20.8492 O   0  0  0  0  0  0  0  0  0  0  0  0
  -19.7308   35.5301  -19.5119 O   0  0  0  0  0  0  0  0  0  0  0  0
  2  1  1  1
  2  3  1  0
  3  4  1  0
  4  5  1  0
  5  6  2  0
  6  7  1  0
  7  8  2  0
  8  9  1  0
  9 10  2  0
 10 11  1  0
 11 12  1  0
 12 13  2  0
 13 14  1  0
 14 15  2  0
 15 16  1  0
 16 17  2  0
  2 18  1  0
 18 19  2  0
 18 20  1  0
  2 21  1  0
 21 22  1  1
 22 23  1  0
 23 24  1  1
 24 25  2  0
 24 26  1  0
 17  4  1  0
 23 21  1  0
 10  5  1  0
 17 12  1  0
M  END
$$$$
