
     RDKit          3D

 17 19  0  0  0  0  0  0  0  0999 V2000
  -31.1012   23.8311  -37.6985 C   0  0  0  0  0  0  0  0  0  0  0  0
  -29.7297   24.0995  -37.2366 C   0  0  0  0  0  0  0  0  0  0  0  0
  -29.3666   24.0014  -35.9104 C   0  0  0  0  0  0  0  0  0  0  0  0
  -28.0769   24.2562  -35.4924 C   0  0  0  0  0  0  0  0  0  0  0  0
  -27.0873   24.6218  -36.3819 C   0  0  0  0  0  0  0  0  0  0  0  0
  -25.7143   24.8861  -35.8882 C   0  0  0  0  0  0  0  0  0  0  0  0
  -25.6061   26.2416  -35.3286 N   0  0  0  0  0  0  0  0  0  0  0  0
  -25.9799   26.6493  -34.1061 C   0  0  0  0  0  0  0  0  0  0  0  0
  -25.7293   27.9564  -33.9458 N   0  0  0  0  0  0  0  0  0  0  0  0
  -25.1830   28.4069  -35.0838 C   0  0  0  0  0  0  0  0  0  0  0  0
  -24.7237   29.6649  -35.4954 C   0  0  0  0  0  0  0  0  0  0  0  0
  -24.1940   29.8553  -36.7517 C   0  0  0  0  0  0  0  0  0  0  0  0
  -24.1139   28.7895  -37.6202 C   0  0  0  0  0  0  0  0  0  0  0  0
  -24.5736   27.5664  -37.1858 C   0  0  0  0  0  0  0  0  0  0  0  0
  -25.1108   27.3300  -35.9389 C   0  0  0  0  0  0  0  0  0  0  0  0
  -27.4473   24.7211  -37.7108 C   0  0  0  0  0  0  0  0  0  0  0  0
  -28.7495   24.4639  -38.1337 C   0  0  0  0  0  0  0  0  0  0  0  0
  1  2  1  0
  2  3  2  0
  3  4  1  0
  4  5  2  0
  5  6  1  0
  6  7  1  0
  7  8  1  0
  8  9  2  0
  9 10  1  0
 10 11  2  0
 11 12  1  0
 12 13  2  0
 13 14  1  0
 14 15  2  0
  5 16  1  0
 16 17  2  0
 17  2  1  0
 15  7  1  0
 15 10  1  0
M  END
$$$$
