
     RDKit          3D

 13 14  0  0  0  0  0  0  0  0999 V2000
  -18.1602   36.8271  -20.4556 N   0  0  0  0  0  0  0  0  0  0  0  0
  -18.6650   36.4766  -21.7708 C   0  0  1  0  0  0  0  0  0  0  0  0
  -17.5512   35.9017  -22.5482 C   0  0  0  0  0  0  0  0  0  0  0  0
  -16.5344   36.5984  -22.8003 O   0  0  0  0  0  0  0  0  0  0  0  0
  -17.5541   34.6012  -23.0340 O   0  0  0  0  0  0  0  0  0  0  0  0
  -19.8577   35.5647  -21.6971 C   0  0  0  0  0  0  0  0  0  0  0  0
  -20.6715   35.9331  -22.9248 C   0  0  0  0  0  0  0  0  0  0  0  0
  -20.4886   37.4403  -23.0398 C   0  0  1  0  0  0  0  0  0  0  0  0
  -20.4989   38.2379  -21.7549 C   0  0  2  0  0  0  0  0  0  0  0  0
  -20.8218   39.6827  -21.9542 C   0  0  0  0  0  0  0  0  0  0  0  0
  -20.5209   40.2605  -23.0267 O   0  0  0  0  0  0  0  0  0  0  0  0
  -21.4565   40.4279  -20.9757 O   0  0  0  0  0  0  0  0  0  0  0  0
  -19.1966   37.7271  -22.4028 C   0  0  1  0  0  0  0  0  0  0  0  0
  2  1  1  1
  2  3  1  0
  3  4  2  0
  3  5  1  0
  2  6  1  0
  6  7  1  0
  8  7  1  1
  8  9  1  0
  9 10  1  6
 10 11  2  0
 10 12  1  0
  9 13  1  0
 13  2  1  1
 13  8  1  0
M  END
$$$$
