
     RDKit          3D

 19 20  0  0  0  0  0  0  0  0999 V2000
  -15.9924   43.1512  -17.4796 O   0  0  0  0  0  0  0  0  0  0  0  0
  -16.6364   42.6245  -18.4276 C   0  0  0  0  0  0  0  0  0  0  0  0
  -17.3291   41.5158  -18.2521 N   0  0  0  0  0  0  0  0  0  0  0  0
  -18.0240   40.9439  -19.2672 C   0  0  0  0  0  0  0  0  0  0  0  0
  -18.6483   39.8898  -18.9878 O   0  0  0  0  0  0  0  0  0  0  0  0
  -18.0410   41.4778  -20.4998 N   0  0  0  0  0  0  0  0  0  0  0  0
  -18.7608   40.8998  -21.5830 C   0  0  1  0  0  0  0  0  0  0  0  0
  -17.8891   40.1347  -22.5449 C   0  0  0  0  0  0  0  0  0  0  0  0
  -18.8574   39.1714  -23.2165 C   0  0  2  0  0  0  0  0  0  0  0  0
  -19.1058   39.5358  -24.5321 O   0  0  0  0  0  0  0  0  0  0  0  0
  -20.0858   39.3176  -22.3461 C   0  0  1  0  0  0  0  0  0  0  0  0
  -20.6635   37.9497  -22.1318 C   0  0  0  0  0  0  0  0  0  0  0  0
  -20.3616   37.5227  -20.8249 O   0  0  0  0  0  0  0  0  0  0  0  0
  -19.6590   39.9162  -21.1674 O   0  0  0  0  0  0  0  0  0  0  0  0
  -17.3390   42.6040  -20.6837 C   0  0  0  0  0  0  0  0  0  0  0  0
  -16.6213   43.2167  -19.6837 C   0  0  0  0  0  0  0  0  0  0  0  0
  -15.8520   44.4301  -19.8392 C   0  0  0  0  0  0  0  0  0  0  0  0
  -16.0273   45.3170  -20.8056 C   0  0  0  0  0  0  0  0  0  0  0  0
  -15.2355   47.0717  -20.6863 Br  0  0  0  0  0  0  0  0  0  0  0  0
  1  2  2  0
  2  3  1  0
  3  4  1  0
  4  5  2  0
  4  6  1  0
  7  6  1  1
  7  8  1  0
  8  9  1  0
  9 10  1  6
  9 11  1  0
 11 12  1  1
 12 13  1  0
 11 14  1  0
  6 15  1  0
 15 16  2  0
 16 17  1  0
 17 18  2  0
 18 19  1  0
 16  2  1  0
 14  7  1  0
M  END
$$$$
