
     RDKit          3D

 42 46  0  0  0  0  0  0  0  0999 V2000
  -20.8642   49.7052  -19.8919 C   0  0  0  0  0  0  0  0  0  0  0  0
  -19.5792   49.1363  -19.9107 O   0  0  0  0  0  0  0  0  0  0  0  0
  -19.0854   48.5106  -18.7813 C   0  0  0  0  0  0  0  0  0  0  0  0
  -18.9516   49.1614  -17.5900 C   0  0  0  0  0  0  0  0  0  0  0  0
  -18.4601   48.5596  -16.4430 C   0  0  0  0  0  0  0  0  0  0  0  0
  -18.3300   49.2806  -15.1889 C   0  0  0  0  0  0  0  0  0  0  0  0
  -18.8863   50.5706  -15.0269 N   0  0  0  0  0  0  0  0  0  0  0  0
  -17.7210   48.7575  -14.2429 O   0  0  0  0  0  0  0  0  0  0  0  0
  -18.0966   47.2357  -16.5437 C   0  0  0  0  0  0  0  0  0  0  0  0
  -18.2224   46.5452  -17.7483 C   0  0  0  0  0  0  0  0  0  0  0  0
  -18.7090   47.1701  -18.8524 C   0  0  0  0  0  0  0  0  0  0  0  0
  -18.8637   46.5172  -20.1206 N   0  0  0  0  0  0  0  0  0  0  0  0
  -19.3034   45.1958  -20.2657 C   0  0  0  0  0  0  0  0  0  0  0  0
  -20.0037   44.7285  -19.3031 O   0  0  0  0  0  0  0  0  0  0  0  0
  -19.0648   44.2802  -21.3778 C   0  0  2  0  0  0  0  0  0  0  0  0
  -20.2311   43.9733  -22.1847 N   0  0  0  0  0  0  0  0  0  0  0  0
  -20.5036   42.5814  -22.1061 C   0  0  1  0  0  0  0  0  0  0  0  0
  -21.0639   41.9609  -23.3430 C   0  0  0  0  0  0  0  0  0  0  0  0
  -21.2530   42.9106  -24.4803 C   0  0  0  0  0  0  0  0  0  0  0  0
  -20.0971   43.8916  -24.6066 C   0  0  0  0  0  0  0  0  0  0  0  0
  -22.4738   43.7732  -24.1206 C   0  0  0  0  0  0  0  0  0  0  0  0
  -21.5811   42.2393  -25.7840 C   0  0  0  0  0  0  0  0  0  0  0  0
  -19.0861   42.0156  -21.8836 C   0  0  2  0  0  0  0  0  0  0  0  0
  -18.3915   42.1818  -23.1598 C   0  0  0  0  0  0  0  0  0  0  0  0
  -18.1884   43.2017  -23.8604 O   0  0  0  0  0  0  0  0  0  0  0  0
  -17.9371   40.8825  -23.5223 N   0  0  0  0  0  0  0  0  0  0  0  0
  -18.3673   39.9469  -22.5126 C   0  0  0  0  0  0  0  0  0  0  0  0
  -18.1919   38.5921  -22.4185 C   0  0  0  0  0  0  0  0  0  0  0  0
  -18.7004   37.8657  -21.3688 C   0  0  0  0  0  0  0  0  0  0  0  0
  -18.4359   36.1370  -21.3165 Cl  0  0  0  0  0  0  0  0  0  0  0  0
  -19.4042   38.5158  -20.3863 C   0  0  0  0  0  0  0  0  0  0  0  0
  -19.5798   39.8811  -20.4823 C   0  0  0  0  0  0  0  0  0  0  0  0
  -19.0736   40.6099  -21.5282 C   0  0  0  0  0  0  0  0  0  0  0  0
  -18.6582   42.9597  -20.7920 C   0  0  1  0  0  0  0  0  0  0  0  0
  -17.3756   42.7987  -20.2053 C   0  0  0  0  0  0  0  0  0  0  0  0
  -16.2182   43.1048  -20.9513 C   0  0  0  0  0  0  0  0  0  0  0  0
  -14.9546   42.9814  -20.4796 C   0  0  0  0  0  0  0  0  0  0  0  0
  -14.7406   42.5381  -19.2129 C   0  0  0  0  0  0  0  0  0  0  0  0
  -15.8427   42.2169  -18.4193 C   0  0  0  0  0  0  0  0  0  0  0  0
  -15.6418   41.6416  -16.7831 Cl  0  0  0  0  0  0  0  0  0  0  0  0
  -17.1362   42.3545  -18.9338 C   0  0  0  0  0  0  0  0  0  0  0  0
  -18.1402   42.0337  -18.1286 F   0  0  0  0  0  0  0  0  0  0  0  0
  1  2  1  0
  2  3  1  0
  3  4  2  0
  4  5  1  0
  5  6  1  0
  6  7  1  0
  6  8  2  0
  5  9  2  0
  9 10  1  0
 10 11  2  0
 11 12  1  0
 12 13  1  0
 13 14  2  0
 15 13  1  1
 15 16  1  0
 16 17  1  0
 17 18  1  6
 18 19  1  0
 19 20  1  0
 19 21  1  0
 19 22  1  0
 17 23  1  0
 23 24  1  6
 24 25  2  0
 24 26  1  0
 26 27  1  0
 27 28  2  0
 28 29  1  0
 29 30  1  0
 29 31  2  0
 31 32  1  0
 32 33  2  0
 23 34  1  0
 34 35  1  6
 35 36  2  0
 36 37  1  0
 37 38  2  0
 38 39  1  0
 39 40  1  0
 39 41  2  0
 41 42  1  0
 11  3  1  0
 34 15  1  0
 41 35  1  0
 33 23  1  0
 33 27  1  0
M  END
$$$$
