
     RDKit          3D

 33 37  0  0  0  0  0  0  0  0999 V2000
  -15.9787   44.2590  -17.9539 C   0  0  0  0  0  0  0  0  0  0  0  0
  -16.0594   44.7475  -19.2515 O   0  0  0  0  0  0  0  0  0  0  0  0
  -16.6388   44.1294  -20.3262 C   0  0  0  0  0  0  0  0  0  0  0  0
  -16.5518   44.7112  -21.5714 C   0  0  0  0  0  0  0  0  0  0  0  0
  -17.1220   44.1254  -22.6896 C   0  0  0  0  0  0  0  0  0  0  0  0
  -17.8027   42.9181  -22.5645 C   0  0  0  0  0  0  0  0  0  0  0  0
  -17.8978   42.3289  -21.3452 C   0  0  0  0  0  0  0  0  0  0  0  0
  -17.3095   42.9479  -20.2322 C   0  0  0  0  0  0  0  0  0  0  0  0
  -18.6136   41.1590  -21.4747 C   0  0  0  0  0  0  0  0  0  0  0  0
  -18.9251   40.1992  -20.4414 C   0  0  0  0  0  0  0  0  0  0  0  0
  -19.9661   39.3675  -20.5116 C   0  0  0  0  0  0  0  0  0  0  0  0
  -20.9454   39.2910  -21.6142 C   0  0  0  0  0  0  0  0  0  0  0  0
  -21.6599   40.3288  -22.1852 C   0  0  0  0  0  0  0  0  0  0  0  0
  -22.4319   39.8697  -23.1658 N   0  0  0  0  0  0  0  0  0  0  0  0
  -22.2638   38.5340  -23.2838 C   0  0  0  0  0  0  0  0  0  0  0  0
  -22.8365   37.6336  -24.1473 C   0  0  0  0  0  0  0  0  0  0  0  0
  -22.4771   36.3056  -24.0566 C   0  0  0  0  0  0  0  0  0  0  0  0
  -21.5578   35.9102  -23.1081 C   0  0  0  0  0  0  0  0  0  0  0  0
  -20.9983   36.8381  -22.2522 C   0  0  0  0  0  0  0  0  0  0  0  0
  -21.3258   38.1674  -22.3061 C   0  0  0  0  0  0  0  0  0  0  0  0
  -19.9367   38.5729  -19.2995 C   0  0  0  0  0  0  0  0  0  0  0  0
  -20.7372   37.6546  -18.9351 O   0  0  0  0  0  0  0  0  0  0  0  0
  -18.8308   38.9666  -18.5063 N   0  0  0  0  0  0  0  0  0  0  0  0
  -18.1629   40.0133  -19.2222 C   0  0  0  0  0  0  0  0  0  0  0  0
  -17.1306   40.5781  -18.7768 O   0  0  0  0  0  0  0  0  0  0  0  0
  -18.9462   41.0720  -22.8204 C   0  0  0  0  0  0  0  0  0  0  0  0
  -18.4520   42.1381  -23.4710 N   0  0  0  0  0  0  0  0  0  0  0  0
  -18.5287   42.5162  -24.8562 C   0  0  0  0  0  0  0  0  0  0  0  0
  -19.9708   42.4664  -25.3600 C   0  0  0  0  0  0  0  0  0  0  0  0
  -20.0327   42.9207  -26.8024 C   0  0  0  0  0  0  0  0  0  0  0  0
  -21.3430   42.9486  -27.3616 N   0  0  0  0  0  0  0  0  0  0  0  0
  -21.3859   43.9972  -28.3946 C   0  0  0  0  0  0  0  0  0  0  0  0
  -21.7218   41.7245  -28.0250 C   0  0  0  0  0  0  0  0  0  0  0  0
  1  2  1  0
  2  3  1  0
  3  4  2  0
  4  5  1  0
  5  6  2  0
  6  7  1  0
  7  8  2  0
  7  9  1  0
  9 10  1  0
 10 11  2  0
 11 12  1  0
 12 13  2  0
 13 14  1  0
 14 15  1  0
 15 16  2  0
 16 17  1  0
 17 18  2  0
 18 19  1  0
 19 20  2  0
 11 21  1  0
 21 22  2  0
 21 23  1  0
 23 24  1  0
 24 25  2  0
  9 26  2  0
 26 27  1  0
 27 28  1  0
 28 29  1  0
 29 30  1  0
 30 31  1  0
 31 32  1  0
 31 33  1  0
  8  3  1  0
 24 10  1  0
 27  6  1  0
 20 12  1  0
 20 15  1  0
M  END
$$$$
