
     RDKit          3D

 23 25  0  0  0  0  0  0  0  0999 V2000
  -21.4395   39.3156  -25.3237 N   0  0  0  0  0  0  0  0  0  0  0  0
  -21.6013   40.5005  -24.1095 S   0  0  0  0  0  6  0  0  0  0  0  0
  -22.9101   41.2667  -24.1132 O   0  0  0  0  0  0  0  0  0  0  0  0
  -20.7257   41.6376  -24.7172 O   0  0  0  0  0  0  0  0  0  0  0  0
  -20.9302   40.1915  -22.5748 C   0  0  0  0  0  0  0  0  0  0  0  0
  -21.4210   39.1016  -21.8076 C   0  0  0  0  0  0  0  0  0  0  0  0
  -20.9560   38.7512  -20.5872 C   0  0  0  0  0  0  0  0  0  0  0  0
  -19.9392   39.4822  -20.0315 C   0  0  0  0  0  0  0  0  0  0  0  0
  -19.4168   40.5413  -20.7078 C   0  0  0  0  0  0  0  0  0  0  0  0
  -19.9056   40.9202  -21.9946 C   0  0  0  0  0  0  0  0  0  0  0  0
  -19.3146   41.9277  -22.6912 C   0  0  0  0  0  0  0  0  0  0  0  0
  -19.6301   42.4509  -23.9145 N   0  0  0  0  0  4  0  0  0  0  0  0
  -19.3582   42.0335  -24.9877 O   0  0  0  0  0  0  0  0  0  0  0  0
  -20.6198   43.4456  -23.9707 O   0  0  0  0  0  1  0  0  0  0  0  0
  -18.1872   42.5593  -22.0719 C   0  0  0  0  0  0  0  0  0  0  0  0
  -17.6966   42.2278  -20.8664 C   0  0  0  0  0  0  0  0  0  0  0  0
  -16.6409   42.8731  -20.3547 N   0  0  0  0  0  0  0  0  0  0  0  0
  -16.1703   42.5282  -19.1433 C   0  0  0  0  0  0  0  0  0  0  0  0
  -15.1748   43.1206  -18.6356 O   0  0  0  0  0  0  0  0  0  0  0  0
  -16.7974   41.5108  -18.4616 C   0  0  0  0  0  0  0  0  0  0  0  0
  -16.3579   41.1855  -17.3270 O   0  0  0  0  0  0  0  0  0  0  0  0
  -17.8795   40.8359  -18.9634 N   0  0  0  0  0  0  0  0  0  0  0  0
  -18.3137   41.2126  -20.1721 C   0  0  0  0  0  0  0  0  0  0  0  0
  1  2  1  0
  2  3  2  0
  2  4  2  0
  2  5  1  0
  5  6  2  0
  6  7  1  0
  7  8  2  0
  8  9  1  0
  9 10  2  0
 10 11  1  0
 11 12  1  0
 12 13  2  0
 12 14  1  0
 11 15  2  0
 15 16  1  0
 16 17  1  0
 17 18  1  0
 18 19  2  0
 18 20  1  0
 20 21  2  0
 20 22  1  0
 22 23  1  0
 10  5  1  0
 23 16  2  0
 23  9  1  0
M  CHG  2  12   1  14  -1
M  END
$$$$
