
     RDKit          3D

 13 13  0  0  0  0  0  0  0  0999 V2000
  -16.0839   14.5926  -30.1769 Cl  0  0  0  0  0  0  0  0  0  0  0  0
  -18.1254   15.7529  -31.1175 N   0  0  0  0  0  0  0  0  0  0  0  0
  -17.1724   15.9553  -30.0888 N   0  0  0  0  0  0  0  0  0  0  0  0
  -16.6614   14.8038  -29.4542 C   0  0  0  0  0  0  0  0  0  0  0  0
  -17.3090   14.1981  -28.4195 N   0  0  0  0  0  0  0  0  0  0  0  0
  -16.8213   13.1126  -27.8505 N   0  0  0  0  0  0  0  0  0  0  0  0
  -15.6581   12.5702  -28.2826 C   0  0  0  0  0  0  0  0  0  0  0  0
  -14.9537   13.1276  -29.3218 C   0  0  0  0  0  0  0  0  0  0  0  0
  -13.7524   12.5936  -29.7855 C   0  0  0  0  0  0  0  0  0  0  0  0
  -13.0699   13.1883  -30.8313 C   0  0  0  0  0  0  0  0  0  0  0  0
  -13.5737   14.3220  -31.4301 C   0  0  0  0  0  0  0  0  0  0  0  0
  -14.7723   14.8425  -30.9569 C   0  0  0  0  0  0  0  0  0  0  0  0
  -15.4640   14.2685  -29.9219 C   0  0  0  0  0  0  0  0  0  0  0  0
  2  3  1  0
  3  4  1  0
  4  5  2  0
  5  6  1  0
  6  7  2  0
  7  8  1  0
  8  9  2  0
  9 10  1  0
 10 11  2  0
 11 12  1  0
 12 13  2  0
 13  4  1  0
 13  8  1  0
M  END
$$$$
