
     RDKit          3D

 27 28  0  0  0  0  0  0  0  0999 V2000
  -24.1091   38.5784  -22.7320 C   0  0  0  0  0  0  0  0  0  0  0  0
  -22.8500   37.9435  -22.9467 O   0  0  0  0  0  0  0  0  0  0  0  0
  -21.8156   38.2757  -22.0706 C   0  0  0  0  0  0  0  0  0  0  0  0
  -21.9827   39.1708  -21.0398 C   0  0  0  0  0  0  0  0  0  0  0  0
  -20.9358   39.4570  -20.2155 C   0  0  0  0  0  0  0  0  0  0  0  0
  -19.7375   38.8838  -20.3861 N   0  0  0  0  0  0  0  0  0  0  0  0
  -19.5238   37.9951  -21.3886 C   0  0  0  0  0  0  0  0  0  0  0  0
  -18.1696   37.4352  -21.5141 C   0  0  0  0  0  0  0  0  0  0  0  0
  -17.3561   38.3042  -22.8938 S   0  0  0  0  0  4  0  0  0  0  0  0
  -15.9221   37.7647  -22.9353 O   0  0  0  0  0  0  0  0  0  0  0  0
  -17.3307   40.0388  -22.4531 C   0  0  0  0  0  0  0  0  0  0  0  0
  -18.2919   40.9532  -22.7589 N   0  0  0  0  0  0  0  0  0  0  0  0
  -17.9449   42.1491  -22.2661 C   0  0  0  0  0  0  0  0  0  0  0  0
  -18.5199   43.4009  -22.2695 C   0  0  0  0  0  0  0  0  0  0  0  0
  -17.9087   44.4792  -21.6561 C   0  0  0  0  0  0  0  0  0  0  0  0
  -16.6834   44.3523  -21.0059 C   0  0  0  0  0  0  0  0  0  0  0  0
  -16.1407   45.4668  -20.4204 O   0  0  0  0  0  0  0  0  0  0  0  0
  -14.9479   45.5857  -19.7234 C   0  0  0  0  0  0  0  0  0  0  0  0
  -14.1227   46.4662  -20.3982 F   0  0  0  0  0  0  0  0  0  0  0  0
  -15.1179   45.9830  -18.4092 F   0  0  0  0  0  0  0  0  0  0  0  0
  -16.1143   43.1001  -21.0063 C   0  0  0  0  0  0  0  0  0  0  0  0
  -16.7337   42.0196  -21.6243 C   0  0  0  0  0  0  0  0  0  0  0  0
  -16.3997   40.7140  -21.7658 N   0  0  0  0  0  2  0  0  0  0  0  0
  -20.5532   37.6913  -22.2250 C   0  0  0  0  0  0  0  0  0  0  0  0
  -20.3628   36.7837  -23.2591 O   0  0  0  0  0  0  0  0  0  0  0  0
  -20.6426   35.3999  -23.0564 C   0  0  0  0  0  0  0  0  0  0  0  0
  -19.0160   40.2261  -21.7717 Na  0  0  0  0  0 15  0  0  0  0  0  0
  1  2  1  0
  2  3  1  0
  3  4  2  0
  4  5  1  0
  5  6  2  0
  6  7  1  0
  7  8  1  0
  8  9  1  0
  9 10  2  0
  9 11  1  0
 11 12  2  0
 12 13  1  0
 13 14  2  0
 14 15  1  0
 15 16  2  0
 16 17  1  0
 17 18  1  0
 18 19  1  0
 18 20  1  0
 16 21  1  0
 21 22  2  0
 22 23  1  0
  7 24  2  0
 24 25  1  0
 25 26  1  0
 24  3  1  0
 23 11  1  0
 22 13  1  0
M  CHG  2  23  -1  27   1
M  END
$$$$
