
     RDKit          3D

 30 32  0  0  0  0  0  0  0  0999 V2000
  -23.4694   26.1703  -27.6273 C   0  0  0  0  0  0  0  0  0  0  0  0
  -23.3297   25.3530  -26.4829 O   0  0  0  0  0  0  0  0  0  0  0  0
  -23.6569   23.9916  -26.5151 C   0  0  0  0  0  0  0  0  0  0  0  0
  -23.5215   23.1912  -25.4030 C   0  0  0  0  0  0  0  0  0  0  0  0
  -23.8403   21.8540  -25.4257 C   0  0  0  0  0  0  0  0  0  0  0  0
  -23.7031   21.0412  -24.2969 O   0  0  0  0  0  0  0  0  0  0  0  0
  -24.4412   19.8369  -24.2293 C   0  0  0  0  0  0  0  0  0  0  0  0
  -24.2966   21.3445  -26.5899 N   0  0  0  0  0  0  0  0  0  0  0  0
  -24.4355   22.1091  -27.6854 C   0  0  0  0  0  0  0  0  0  0  0  0
  -24.9087   21.5088  -28.8347 O   0  0  0  0  0  0  0  0  0  0  0  0
  -24.9531   22.2382  -30.0838 C   0  0  2  0  0  0  0  0  0  0  0  0
  -26.3385   22.0986  -30.5989 C   0  0  0  0  0  0  0  0  0  0  0  0
  -26.8828   22.7797  -31.4751 O   0  0  0  0  0  0  0  0  0  0  0  0
  -27.1573   21.0855  -30.0510 O   0  0  0  0  0  0  0  0  0  0  0  0
  -24.0899   21.3574  -31.0112 C   0  0  0  0  0  0  0  0  0  0  0  0
  -24.4474   20.1001  -30.6759 O   0  0  0  0  0  0  0  0  0  0  0  0
  -24.2093   19.0413  -31.4636 C   0  0  0  0  0  0  0  0  0  0  0  0
  -24.1114   21.7978  -32.3872 C   0  0  0  0  0  0  0  0  0  0  0  0
  -24.6609   21.0321  -33.3923 C   0  0  0  0  0  0  0  0  0  0  0  0
  -24.6945   21.4510  -34.7249 C   0  0  0  0  0  0  0  0  0  0  0  0
  -24.1596   22.6769  -35.0529 C   0  0  0  0  0  0  0  0  0  0  0  0
  -23.6149   23.4348  -34.0449 C   0  0  0  0  0  0  0  0  0  0  0  0
  -23.5834   23.0201  -32.7360 C   0  0  0  0  0  0  0  0  0  0  0  0
  -22.6555   21.5520  -30.5377 C   0  0  0  0  0  0  0  0  0  0  0  0
  -22.0395   22.7674  -30.7045 C   0  0  0  0  0  0  0  0  0  0  0  0
  -20.7347   22.9940  -30.2810 C   0  0  0  0  0  0  0  0  0  0  0  0
  -20.0633   21.9669  -29.6848 C   0  0  0  0  0  0  0  0  0  0  0  0
  -20.6538   20.7445  -29.5062 C   0  0  0  0  0  0  0  0  0  0  0  0
  -21.9608   20.5327  -29.9354 C   0  0  0  0  0  0  0  0  0  0  0  0
  -24.1169   23.4332  -27.6526 N   0  0  0  0  0  0  0  0  0  0  0  0
  1  2  1  0
  2  3  1  0
  3  4  2  0
  4  5  1  0
  5  6  1  0
  6  7  1  0
  5  8  2  0
  8  9  1  0
  9 10  1  0
 11 10  1  1
 11 12  1  0
 12 13  2  0
 12 14  1  0
 11 15  1  0
 15 16  1  0
 16 17  1  0
 15 18  1  0
 18 19  2  0
 19 20  1  0
 20 21  2  0
 21 22  1  0
 22 23  2  0
 15 24  1  0
 24 25  2  0
 25 26  1  0
 26 27  2  0
 27 28  1  0
 28 29  2  0
  9 30  2  0
 30  3  1  0
 23 18  1  0
 29 24  1  0
M  END
$$$$
