
     RDKit          3D

 27 30  0  0  0  0  0  0  0  0999 V2000
  -14.6921   46.3651  -19.2987 C   0  0  0  0  0  0  0  0  0  0  0  0
  -15.9490   45.6225  -19.5773 C   0  0  0  0  0  0  0  0  0  0  0  0
  -16.8187   46.2449  -20.1606 O   0  0  0  0  0  0  0  0  0  0  0  0
  -16.1908   44.2281  -19.2001 C   0  0  0  0  0  0  0  0  0  0  0  0
  -16.0519   44.1219  -17.7966 O   0  0  0  0  0  0  0  0  0  0  0  0
  -15.3251   43.2397  -19.9081 C   0  0  0  0  0  0  0  0  0  0  0  0
  -16.1165   42.7342  -21.0647 C   0  0  0  0  0  0  0  0  0  0  0  0
  -17.5220   43.2614  -20.8945 C   0  0  0  0  0  0  0  0  0  0  0  0
  -18.5011   42.2352  -21.2983 C   0  0  0  0  0  0  0  0  0  0  0  0
  -19.5684   42.7587  -22.2775 C   0  0  0  0  0  0  0  0  0  0  0  0
  -20.1727   41.5145  -22.9474 C   0  0  0  0  0  0  0  0  0  0  0  0
  -19.6897   41.5135  -24.3697 C   0  0  0  0  0  0  0  0  0  0  0  0
  -19.6067   40.3053  -22.2194 C   0  0  0  0  0  0  0  0  0  0  0  0
  -18.9808   39.3727  -22.8667 C   0  0  0  0  0  0  0  0  0  0  0  0
  -18.4085   38.1910  -22.2376 C   0  0  0  0  0  0  0  0  0  0  0  0
  -17.8114   37.2979  -22.8522 O   0  0  0  0  0  0  0  0  0  0  0  0
  -18.5704   38.0921  -20.7954 C   0  0  0  0  0  0  0  0  0  0  0  0
  -19.2109   39.0471  -20.1464 C   0  0  0  0  0  0  0  0  0  0  0  0
  -19.8088   40.2533  -20.7435 C   0  0  0  0  0  0  0  0  0  0  0  0
  -21.3282   40.1960  -20.4656 C   0  0  0  0  0  0  0  0  0  0  0  0
  -19.2389   41.5391  -20.1892 C   0  0  0  0  0  0  0  0  0  0  0  0
  -20.3608   42.3035  -19.7979 F   0  0  0  0  0  0  0  0  0  0  0  0
  -18.4059   41.4002  -18.9699 C   0  0  0  0  0  0  0  0  0  0  0  0
  -19.2155   40.8564  -17.9390 O   0  0  0  0  0  0  0  0  0  0  0  0
  -17.9862   42.7428  -18.4830 C   0  0  0  0  0  0  0  0  0  0  0  0
  -17.6129   43.7490  -19.5051 C   0  0  0  0  0  0  0  0  0  0  0  0
  -18.5862   44.9213  -19.4169 C   0  0  0  0  0  0  0  0  0  0  0  0
  1  2  1  0
  2  3  2  0
  2  4  1  0
  4  5  1  0
  4  6  1  0
  6  7  1  0
  7  8  1  0
  8  9  1  0
  9 10  1  0
 10 11  1  0
 11 12  1  0
 11 13  1  0
 13 14  2  0
 14 15  1  0
 15 16  2  0
 15 17  1  0
 17 18  2  0
 18 19  1  0
 19 20  1  0
 19 21  1  0
 21 22  1  0
 21 23  1  0
 23 24  1  0
 23 25  1  0
 25 26  1  0
 26 27  1  0
 26  4  1  0
 26  8  1  0
 21  9  1  0
 19 13  1  0
M  END
$$$$
