
     RDKit          3D

 19 21  0  0  0  0  0  0  0  0999 V2000
  -21.5853   25.7249  -35.5927 C   0  0  0  0  0  0  0  0  0  0  0  0
  -22.0480   25.5174  -36.9455 N   0  0  0  0  0  0  0  0  0  0  0  0
  -23.4065   25.1129  -37.1848 C   0  0  0  0  0  0  0  0  0  0  0  0
  -24.3502   24.8954  -36.3263 O   0  0  0  0  0  0  0  0  0  0  0  0
  -25.4913   24.5313  -36.9178 C   0  0  0  0  0  0  0  0  0  0  0  0
  -26.6854   24.2371  -36.1346 C   0  0  0  0  0  0  0  0  0  0  0  0
  -26.5628   23.9236  -34.7669 C   0  0  0  0  0  0  0  0  0  0  0  0
  -27.6143   23.6362  -33.9608 C   0  0  0  0  0  0  0  0  0  0  0  0
  -28.8815   23.6448  -34.4842 C   0  0  0  0  0  0  0  0  0  0  0  0
  -29.0737   23.9427  -35.8127 C   0  0  0  0  0  0  0  0  0  0  0  0
  -30.3425   23.9575  -36.3646 C   0  0  0  0  0  0  0  0  0  0  0  0
  -30.5231   24.2554  -37.6911 C   0  0  0  0  0  0  0  0  0  0  0  0
  -29.4570   24.5468  -38.5084 C   0  0  0  0  0  0  0  0  0  0  0  0
  -28.1699   24.5344  -37.9593 C   0  0  0  0  0  0  0  0  0  0  0  0
  -27.9684   24.2381  -36.6320 C   0  0  0  0  0  0  0  0  0  0  0  0
  -25.2055   24.5336  -38.2060 N   0  0  0  0  0  0  0  0  0  0  0  0
  -23.9337   24.8843  -38.4360 C   0  0  0  0  0  0  0  0  0  0  0  0
  -23.2376   25.0078  -39.6860 C   0  0  0  0  0  0  0  0  0  0  0  0
  -22.6939   25.1037  -40.6979 N   0  0  0  0  0  0  0  0  0  0  0  0
  1  2  1  0
  2  3  1  0
  3  4  1  0
  4  5  1  0
  5  6  1  0
  6  7  2  0
  7  8  1  0
  8  9  2  0
  9 10  1  0
 10 11  2  0
 11 12  1  0
 12 13  2  0
 13 14  1  0
 14 15  2  0
  5 16  2  0
 16 17  1  0
 17 18  1  0
 18 19  3  0
 17  3  2  0
 15  6  1  0
 15 10  1  0
M  END
$$$$
