
     RDKit          3D

 20 20  0  0  0  0  0  0  0  0999 V2000
  -14.9964   17.5562  -36.3380 C   0  0  0  0  0  0  0  0  0  0  0  0
  -14.9165   17.8323  -37.7905 C   0  0  0  0  0  0  0  0  0  0  0  0
  -13.7657   17.4644  -38.4549 C   0  0  0  0  0  0  0  0  0  0  0  0
  -13.5887   17.6795  -39.8272 C   0  0  0  0  0  0  0  0  0  0  0  0
  -12.3181   17.2561  -40.4793 C   0  0  0  0  0  0  0  0  0  0  0  0
  -11.4102   16.6334  -39.4489 C   0  0  0  0  0  0  0  0  0  0  0  0
  -12.5564   16.2414  -41.5704 C   0  0  0  0  0  0  0  0  0  0  0  0
  -11.6723   18.5160  -41.0274 C   0  0  0  0  0  0  0  0  0  0  0  0
  -14.6010   18.2809  -40.5414 C   0  0  0  0  0  0  0  0  0  0  0  0
  -14.4695   18.5164  -41.9149 O   0  0  0  0  0  0  0  0  0  0  0  0
  -15.7515   18.6435  -39.8534 C   0  0  0  0  0  0  0  0  0  0  0  0
  -16.8285   19.2968  -40.6769 C   0  0  0  0  0  0  0  0  0  0  0  0
  -15.9155   18.4293  -38.5121 C   0  0  0  0  0  0  0  0  0  0  0  0
  -17.1722   18.8455  -37.8498 C   0  0  0  0  0  0  0  0  0  0  0  0
  -18.0714   17.7243  -37.5536 C   0  0  0  0  0  0  0  0  0  0  0  0
  -18.4789   17.3937  -36.3879 N   0  0  0  0  0  0  0  0  0  0  0  0
  -19.3437   16.2692  -36.3707 C   0  0  0  0  0  0  0  0  0  0  0  0
  -19.6441   15.9982  -37.8091 C   0  0  0  0  0  0  0  0  0  0  0  0
  -18.6373   16.8283  -38.4909 N   0  0  0  0  0  0  0  0  0  0  0  0
  -15.8764   17.4518  -38.7873 Cl  0  0  0  0  0  0  0  0  0  0  0  0
  1  2  1  0
  2  3  2  0
  3  4  1  0
  4  5  1  0
  5  6  1  0
  5  7  1  0
  5  8  1  0
  4  9  2  0
  9 10  1  0
  9 11  1  0
 11 12  1  0
 11 13  2  0
 13 14  1  0
 14 15  1  0
 15 16  2  0
 16 17  1  0
 17 18  1  0
 18 19  1  0
 13  2  1  0
 19 15  1  0
M  END
$$$$
