
     RDKit          3D

 24 27  0  0  0  0  0  0  0  0999 V2000
  -20.9823   39.8790  -21.7344 N   0  0  0  0  0  0  0  0  0  0  0  0
  -19.6034   40.1005  -22.0922 C   0  0  0  0  0  0  0  0  0  0  0  0
  -19.0994   39.2268  -23.1663 C   0  0  0  0  0  0  0  0  0  0  0  0
  -19.0727   37.7963  -22.9600 C   0  0  0  0  0  0  0  0  0  0  0  0
  -20.2097   37.0088  -23.0539 C   0  0  0  0  0  0  0  0  0  0  0  0
  -20.1760   35.6452  -22.8499 C   0  0  0  0  0  0  0  0  0  0  0  0
  -18.9938   35.0055  -22.5406 C   0  0  0  0  0  0  0  0  0  0  0  0
  -18.9584   33.2680  -22.2821 Cl  0  0  0  0  0  0  0  0  0  0  0  0
  -17.8570   35.7759  -22.4442 C   0  0  0  0  0  0  0  0  0  0  0  0
  -17.8887   37.1605  -22.6508 C   0  0  0  0  0  0  0  0  0  0  0  0
  -19.3880   41.5679  -22.3388 C   0  0  0  0  0  0  0  0  0  0  0  0
  -18.0549   42.0353  -21.7754 C   0  0  0  0  0  0  0  0  0  0  0  0
  -18.2262   42.0501  -20.2991 N   0  0  0  0  0  0  0  0  0  0  0  0
  -17.6974   43.1232  -19.5802 C   0  0  0  0  0  0  0  0  0  0  0  0
  -17.8441   44.3700  -20.1341 N   0  0  0  0  0  0  0  0  0  0  0  0
  -17.3403   45.4422  -19.5205 C   0  0  0  0  0  0  0  0  0  0  0  0
  -16.6908   45.2748  -18.3561 N   0  0  0  0  0  0  0  0  0  0  0  0
  -16.5173   44.0975  -17.7715 C   0  0  0  0  0  0  0  0  0  0  0  0
  -15.9311   43.6881  -16.6424 N   0  0  0  0  0  0  0  0  0  0  0  0
  -16.0408   42.3657  -16.5014 C   0  0  0  0  0  0  0  0  0  0  0  0
  -16.7307   41.8723  -17.5849 C   0  0  0  0  0  0  0  0  0  0  0  0
  -17.0341   42.9482  -18.3887 C   0  0  0  0  0  0  0  0  0  0  0  0
  -18.9140   40.8981  -19.8016 C   0  0  0  0  0  0  0  0  0  0  0  0
  -18.7875   39.7621  -20.8342 C   0  0  0  0  0  0  0  0  0  0  0  0
  1  2  1  0
  2  3  1  0
  3  4  1  0
  4  5  2  0
  5  6  1  0
  6  7  2  0
  7  8  1  0
  7  9  1  0
  9 10  2  0
  2 11  1  0
 11 12  1  0
 12 13  1  0
 13 14  1  0
 14 15  2  0
 15 16  1  0
 16 17  2  0
 17 18  1  0
 18 19  1  0
 19 20  1  0
 20 21  2  0
 21 22  1  0
 13 23  1  0
 23 24  1  0
 24  2  1  0
 10  4  1  0
 22 14  1  0
 22 18  2  0
M  END
$$$$
