
     RDKit          3D

 34 37  0  0  0  0  0  0  0  0999 V2000
  -22.9821   44.6545  -21.3742 C   0  0  0  0  0  0  0  0  0  0  0  0
  -21.5042   44.5435  -21.4612 C   0  0  0  0  0  0  0  0  0  0  0  0
  -21.0028   43.5503  -22.1483 N   0  0  0  0  0  0  0  0  0  0  0  0
  -21.8651   42.5484  -22.5822 N   0  0  0  0  0  0  0  0  0  0  0  0
  -21.6426   41.1721  -22.3459 C   0  0  0  0  0  0  0  0  0  0  0  0
  -22.0690   40.6732  -21.2742 O   0  0  0  0  0  0  0  0  0  0  0  0
  -20.9164   40.3605  -23.3639 C   0  0  0  0  0  0  0  0  0  0  0  0
  -20.1823   41.3108  -24.2135 N   0  0  0  0  0  0  0  0  0  0  0  0
  -20.1561   41.1625  -25.6238 C   0  0  0  0  0  0  0  0  0  0  0  0
  -20.6730   40.0791  -26.0599 O   0  0  0  0  0  0  0  0  0  0  0  0
  -19.5928   42.1447  -26.5438 C   0  0  0  0  0  0  0  0  0  0  0  0
  -18.7017   41.7961  -27.5342 C   0  0  0  0  0  0  0  0  0  0  0  0
  -18.1984   42.7760  -28.3812 C   0  0  0  0  0  0  0  0  0  0  0  0
  -18.5923   44.0871  -28.2262 C   0  0  0  0  0  0  0  0  0  0  0  0
  -19.4849   44.4486  -27.2372 C   0  0  0  0  0  0  0  0  0  0  0  0
  -19.9834   43.4687  -26.3959 C   0  0  0  0  0  0  0  0  0  0  0  0
  -20.0027   39.5091  -22.5978 C   0  0  0  0  0  0  0  0  0  0  0  0
  -18.8935   40.1188  -22.0819 N   0  0  0  0  0  0  0  0  0  0  0  0
  -17.9835   39.4940  -21.3673 N   0  0  0  0  0  0  0  0  0  0  0  0
  -18.1351   38.1715  -21.1168 C   0  0  0  0  0  0  0  0  0  0  0  0
  -17.3000   37.5170  -20.4398 O   0  0  0  0  0  0  0  0  0  0  0  0
  -19.2230   37.4899  -21.6013 C   0  0  0  0  0  0  0  0  0  0  0  0
  -19.3999   36.1597  -21.3665 C   0  0  0  0  0  0  0  0  0  0  0  0
  -20.4963   35.4513  -21.8518 C   0  0  0  0  0  0  0  0  0  0  0  0
  -21.4116   36.1803  -22.5970 C   0  0  0  0  0  0  0  0  0  0  0  0
  -21.2406   37.5317  -22.8408 C   0  0  0  0  0  0  0  0  0  0  0  0
  -20.1521   38.1748  -22.3432 C   0  0  0  0  0  0  0  0  0  0  0  0
  -20.6711   45.5149  -20.7988 C   0  0  0  0  0  0  0  0  0  0  0  0
  -21.2436   46.5814  -20.1525 C   0  0  0  0  0  0  0  0  0  0  0  0
  -20.4176   47.4981  -19.5253 C   0  0  0  0  0  0  0  0  0  0  0  0
  -19.0453   47.3764  -19.5280 C   0  0  0  0  0  0  0  0  0  0  0  0
  -18.5093   46.2974  -20.1843 C   0  0  0  0  0  0  0  0  0  0  0  0
  -16.6007   46.1230  -20.1915 Br  0  0  0  0  0  0  0  0  0  0  0  0
  -19.3140   45.3748  -20.8141 C   0  0  0  0  0  0  0  0  0  0  0  0
  1  2  1  0
  2  3  2  0
  3  4  1  0
  4  5  1  0
  5  6  2  0
  5  7  1  0
  7  8  1  0
  8  9  1  0
  9 10  2  0
  9 11  1  0
 11 12  2  0
 12 13  1  0
 13 14  2  0
 14 15  1  0
 15 16  2  0
  7 17  1  0
 17 18  2  0
 18 19  1  0
 19 20  1  0
 20 21  2  0
 20 22  1  0
 22 23  2  0
 23 24  1  0
 24 25  2  0
 25 26  1  0
 26 27  2  0
  2 28  1  0
 28 29  2  0
 29 30  1  0
 30 31  2  0
 31 32  1  0
 32 33  1  0
 32 34  2  0
 16 11  1  0
 27 17  1  0
 34 28  1  0
 27 22  1  0
M  END
$$$$
