
     RDKit          3D

 15 16  0  0  0  0  0  0  0  0999 V2000
  -18.6125   39.2977  -22.9601 C   0  0  0  0  0  0  0  0  0  0  0  0
  -18.5125   40.7344  -22.5979 C   0  0  0  0  0  0  0  0  0  0  0  0
  -19.5099   41.6402  -22.9743 C   0  0  0  0  0  0  0  0  0  0  0  0
  -19.3660   42.9629  -22.6114 C   0  0  0  0  0  0  0  0  0  0  0  0
  -18.2593   43.3626  -21.8953 C   0  0  0  0  0  0  0  0  0  0  0  0
  -17.2523   42.4874  -21.5068 C   0  0  0  0  0  0  0  0  0  0  0  0
  -16.0962   42.9275  -20.7540 C   0  0  0  0  0  0  0  0  0  0  0  0
  -15.2406   42.0453  -20.4183 O   0  0  0  0  0  0  0  0  0  0  0  0
  -15.8447   44.2533  -20.3646 N   0  0  0  0  0  0  0  0  0  0  0  0
  -14.6457   44.5775  -19.6735 C   0  0  0  0  0  0  0  0  0  0  0  0
  -14.1968   45.7106  -19.3466 N   0  0  0  0  0  0  0  0  0  0  0  0
  -12.9852   45.8298  -18.6635 C   0  0  0  0  0  0  0  0  0  0  0  0
  -12.6270   44.5579  -17.9226 C   0  0  0  0  0  0  0  0  0  0  0  0
  -13.4595   43.3787  -19.0764 S   0  0  0  0  0  0  0  0  0  0  0  0
  -17.4143   41.1695  -21.8792 C   0  0  0  0  0  0  0  0  0  0  0  0
  1  2  1  0
  2  3  2  0
  3  4  1  0
  4  5  2  0
  5  6  1  0
  6  7  1  0
  7  8  2  0
  7  9  1  0
  9 10  1  0
 10 11  2  0
 11 12  1  0
 12 13  1  0
 13 14  1  0
  6 15  2  0
 15  2  1  0
 14 10  1  0
M  END
$$$$
