
     RDKit          3D

 32 35  0  0  0  0  0  0  0  0999 V2000
  -21.2822   43.8365  -24.7591 C   0  0  0  0  0  0  0  0  0  0  0  0
  -20.7035   43.9158  -23.3788 C   0  0  0  0  0  0  0  0  0  0  0  0
  -19.2277   43.6397  -23.2935 C   0  0  0  0  0  0  0  0  0  0  0  0
  -18.8886   43.2082  -21.9357 C   0  0  0  0  0  0  0  0  0  0  0  0
  -18.4007   44.0185  -20.9732 N   0  0  0  0  0  0  0  0  0  0  0  0
  -18.2232   43.3586  -19.8504 N   0  0  0  0  0  0  0  0  0  0  0  0
  -17.7247   43.8273  -18.5732 C   0  0  0  0  0  0  0  0  0  0  0  0
  -18.6006   42.0777  -20.0684 C   0  0  0  0  0  0  0  0  0  0  0  0
  -18.6089   40.9800  -19.2368 C   0  0  0  0  0  0  0  0  0  0  0  0
  -18.2294   41.0490  -18.0296 O   0  0  0  0  0  0  0  0  0  0  0  0
  -19.0471   39.8102  -19.7779 N   0  0  0  0  0  0  0  0  0  0  0  0
  -19.4554   39.6988  -21.0480 C   0  0  0  0  0  0  0  0  0  0  0  0
  -19.9166   38.3871  -21.5318 C   0  0  0  0  0  0  0  0  0  0  0  0
  -19.1683   37.2415  -21.5073 C   0  0  0  0  0  0  0  0  0  0  0  0
  -19.6323   36.0273  -21.9800 C   0  0  0  0  0  0  0  0  0  0  0  0
  -18.6090   34.6249  -21.9049 S   0  0  0  0  0  6  0  0  0  0  0  0
  -17.3114   34.8793  -22.6702 O   0  0  0  0  0  0  0  0  0  0  0  0
  -18.1658   34.4745  -20.4637 O   0  0  0  0  0  0  0  0  0  0  0  0
  -19.2865   33.2150  -22.5336 N   0  0  0  0  0  0  0  0  0  0  0  0
  -19.0178   33.0348  -23.9050 C   0  0  0  0  0  0  0  0  0  0  0  0
  -17.8525   32.1848  -24.2748 C   0  0  0  0  0  0  0  0  0  0  0  0
  -17.6381   31.1039  -23.3680 N   0  0  0  0  0  0  0  0  0  0  0  0
  -18.7713   30.8106  -22.5355 C   0  0  0  0  0  0  0  0  0  0  0  0
  -19.1901   32.0443  -21.7505 C   0  0  0  0  0  0  0  0  0  0  0  0
  -20.8911   35.9164  -22.5056 C   0  0  0  0  0  0  0  0  0  0  0  0
  -21.6640   37.0770  -22.5365 C   0  0  0  0  0  0  0  0  0  0  0  0
  -21.2054   38.2873  -22.0672 C   0  0  0  0  0  0  0  0  0  0  0  0
  -21.9723   39.4330  -22.1005 O   0  0  0  0  0  0  0  0  0  0  0  0
  -23.2356   39.5769  -22.6684 C   0  0  0  0  0  0  0  0  0  0  0  0
  -23.7547   40.9606  -22.4777 C   0  0  0  0  0  0  0  0  0  0  0  0
  -19.4508   40.7679  -21.8667 N   0  0  0  0  0  0  0  0  0  0  0  0
  -19.0267   41.9425  -21.3742 C   0  0  0  0  0  0  0  0  0  0  0  0
  1  2  1  0
  2  3  1  0
  3  4  1  0
  4  5  2  0
  5  6  1  0
  6  7  1  0
  6  8  1  0
  8  9  1  0
  9 10  2  0
  9 11  1  0
 11 12  1  0
 12 13  1  0
 13 14  2  0
 14 15  1  0
 15 16  1  0
 16 17  2  0
 16 18  2  0
 16 19  1  0
 19 20  1  0
 20 21  1  0
 21 22  1  0
 22 23  1  0
 23 24  1  0
 15 25  2  0
 25 26  1  0
 26 27  2  0
 27 28  1  0
 28 29  1  0
 29 30  1  0
 12 31  2  0
 31 32  1  0
 32  4  1  0
 32  8  2  0
 27 13  1  0
 24 19  1  0
M  END
$$$$
