
     RDKit          3D

 20 20  0  0  0  0  0  0  0  0999 V2000
  -19.3409   36.7347  -21.8129 Cl  0  0  0  0  0  0  0  0  0  0  0  0
  -18.6601   31.4737  -20.2808 N   0  0  0  0  0  0  0  0  0  0  0  0
  -19.9316   32.0762  -20.6279 C   0  0  0  0  0  0  0  0  0  0  0  0
  -19.6936   33.4173  -21.2170 C   0  0  0  0  0  0  0  0  0  0  0  0
  -18.5336   33.8852  -21.3583 O   0  0  0  0  0  0  0  0  0  0  0  0
  -20.7816   34.2306  -21.6480 N   0  0  0  0  0  0  0  0  0  0  0  0
  -20.5761   35.5046  -22.2089 C   0  0  0  0  0  0  0  0  0  0  0  0
  -20.4040   35.7119  -23.5543 C   0  0  0  0  0  0  0  0  0  0  0  0
  -20.2050   36.9755  -24.0650 C   0  0  0  0  0  0  0  0  0  0  0  0
  -20.1694   38.1122  -23.2261 C   0  0  0  0  0  0  0  0  0  0  0  0
  -19.9720   39.2943  -23.8156 O   0  0  0  0  0  0  0  0  0  0  0  0
  -19.8478   40.6006  -23.5305 C   0  0  0  0  0  0  0  0  0  0  0  0
  -18.6935   40.9099  -22.6612 C   0  0  0  0  0  0  0  0  0  0  0  0
  -18.7700   41.0552  -21.2999 C   0  0  0  0  0  0  0  0  0  0  0  0
  -17.6535   41.3385  -20.5153 C   0  0  0  0  0  0  0  0  0  0  0  0
  -16.4112   41.4856  -21.0902 C   0  0  0  0  0  0  0  0  0  0  0  0
  -16.3060   41.3451  -22.4559 C   0  0  0  0  0  0  0  0  0  0  0  0
  -17.4162   41.0654  -23.2175 C   0  0  0  0  0  0  0  0  0  0  0  0
  -20.3436   37.8864  -21.8839 C   0  0  0  0  0  0  0  0  0  0  0  0
  -20.5421   36.6060  -21.3929 C   0  0  0  0  0  0  0  0  0  0  0  0
  2  3  1  0
  3  4  1  0
  4  5  2  0
  4  6  1  0
  6  7  1  0
  7  8  2  0
  8  9  1  0
  9 10  2  0
 10 11  1  0
 11 12  1  0
 12 13  1  0
 13 14  2  0
 14 15  1  0
 15 16  2  0
 16 17  1  0
 17 18  2  0
 10 19  1  0
 19 20  2  0
 20  7  1  0
 18 13  1  0
M  END
$$$$
