
     RDKit          3D

 51 57  0  0  0  0  0  0  0  0999 V2000
  -29.9336   38.4201  -28.7502 C   0  0  0  0  0  0  0  0  0  0  0  0
  -29.6578   37.1243  -28.0522 C   0  0  0  0  0  0  0  0  0  0  0  0
  -29.3859   37.1986  -26.5968 C   0  0  1  0  0  0  0  0  0  0  0  0
  -30.3189   36.5203  -25.6720 C   0  0  2  0  0  0  0  0  0  0  0  0
  -30.1560   36.8453  -24.2313 C   0  0  0  0  0  0  0  0  0  0  0  0
  -30.1662   35.1285  -25.8606 O   0  0  0  0  0  0  0  0  0  0  0  0
  -28.0177   36.7053  -26.3422 N   0  0  0  0  0  0  0  0  0  0  0  0
  -27.4256   35.7027  -26.9659 N   0  0  0  0  0  0  0  0  0  0  0  0
  -26.1914   35.5566  -26.4547 C   0  0  0  0  0  0  0  0  0  0  0  0
  -25.9834   36.4711  -25.4940 N   0  0  0  0  0  0  0  0  0  0  0  0
  -24.7870   36.6000  -24.7385 C   0  0  0  0  0  0  0  0  0  0  0  0
  -23.6878   35.7907  -24.9643 C   0  0  0  0  0  0  0  0  0  0  0  0
  -22.5067   35.8804  -24.2466 C   0  0  0  0  0  0  0  0  0  0  0  0
  -22.4065   36.8249  -23.2473 C   0  0  0  0  0  0  0  0  0  0  0  0
  -21.1775   36.9247  -22.4828 N   0  0  0  0  0  0  0  0  0  0  0  0
  -19.9754   36.9473  -23.2440 C   0  0  0  0  0  0  0  0  0  0  0  0
  -18.7670   37.0659  -22.3636 C   0  0  0  0  0  0  0  0  0  0  0  0
  -19.1169   37.8869  -21.2449 N   0  0  0  0  0  0  0  0  0  0  0  0
  -18.5893   39.1765  -21.1019 C   0  0  0  0  0  0  0  0  0  0  0  0
  -17.5802   39.6565  -21.9519 C   0  0  0  0  0  0  0  0  0  0  0  0
  -17.0410   40.9084  -21.8038 C   0  0  0  0  0  0  0  0  0  0  0  0
  -17.4798   41.7792  -20.7808 C   0  0  0  0  0  0  0  0  0  0  0  0
  -16.8877   42.9663  -20.7374 O   0  0  0  0  0  0  0  0  0  0  0  0
  -15.9731   43.7737  -21.2606 C   0  0  0  0  0  0  0  0  0  0  0  0
  -15.6113   45.0772  -20.6471 C   0  0  2  0  0  0  0  0  0  0  0  0
  -14.1910   45.5225  -21.1091 C   0  0  0  0  0  0  0  0  0  0  0  0
  -13.9733   46.6074  -20.2827 O   0  0  0  0  0  0  0  0  0  0  0  0
  -14.3805   46.3248  -19.0139 C   0  0  1  0  0  0  0  0  0  0  0  0
  -13.1553   45.8651  -18.2465 C   0  0  0  0  0  0  0  0  0  0  0  0
  -12.9091   46.5932  -17.0472 N   0  0  0  0  0  0  0  0  0  0  0  0
  -13.3485   46.2036  -15.8236 C   0  0  0  0  0  0  0  0  0  0  0  0
  -12.9530   47.0884  -14.9052 N   0  0  0  0  0  0  0  0  0  0  0  0
  -12.2554   48.0518  -15.5433 C   0  0  0  0  0  0  0  0  0  0  0  0
  -12.2501   47.7197  -16.8323 N   0  0  0  0  0  0  0  0  0  0  0  0
  -15.1132   47.4157  -18.3637 C   0  0  0  0  0  0  0  0  0  0  0  0
  -14.8754   48.7341  -18.7685 C   0  0  0  0  0  0  0  0  0  0  0  0
  -15.5290   49.7976  -18.1868 C   0  0  0  0  0  0  0  0  0  0  0  0
  -16.4476   49.5771  -17.1750 C   0  0  0  0  0  0  0  0  0  0  0  0
  -17.1061   50.6270  -16.5866 F   0  0  0  0  0  0  0  0  0  0  0  0
  -16.6595   48.2778  -16.8003 C   0  0  0  0  0  0  0  0  0  0  0  0
  -16.0243   47.2028  -17.3612 C   0  0  0  0  0  0  0  0  0  0  0  0
  -16.3170   45.9361  -16.9117 F   0  0  0  0  0  0  0  0  0  0  0  0
  -15.3771   45.1561  -19.1824 C   0  0  0  0  0  0  0  0  0  0  0  0
  -18.4644   41.2709  -19.9784 C   0  0  0  0  0  0  0  0  0  0  0  0
  -19.0119   40.0350  -20.1068 C   0  0  0  0  0  0  0  0  0  0  0  0
  -20.0386   37.2894  -20.3235 C   0  0  0  0  0  0  0  0  0  0  0  0
  -21.2970   36.9810  -21.0793 C   0  0  0  0  0  0  0  0  0  0  0  0
  -23.4905   37.6571  -22.9905 C   0  0  0  0  0  0  0  0  0  0  0  0
  -24.6530   37.5358  -23.7305 C   0  0  0  0  0  0  0  0  0  0  0  0
  -27.1273   37.1668  -25.4457 C   0  0  0  0  0  0  0  0  0  0  0  0
  -27.3279   38.1294  -24.6542 O   0  0  0  0  0  0  0  0  0  0  0  0
  1  2  1  0
  3  2  1  6
  3  4  1  0
  4  5  1  1
  4  6  1  0
  3  7  1  0
  7  8  1  0
  8  9  2  0
  9 10  1  0
 10 11  1  0
 11 12  2  0
 12 13  1  0
 13 14  2  0
 14 15  1  0
 15 16  1  0
 16 17  1  0
 17 18  1  0
 18 19  1  0
 19 20  2  0
 20 21  1  0
 21 22  2  0
 22 23  1  0
 23 24  1  0
 25 24  1  1
 25 26  1  0
 26 27  1  0
 27 28  1  0
 28 29  1  1
 29 30  1  0
 30 31  1  0
 31 32  2  0
 32 33  1  0
 33 34  2  0
 28 35  1  0
 35 36  2  0
 36 37  1  0
 37 38  2  0
 38 39  1  0
 38 40  1  0
 40 41  2  0
 41 42  1  0
 28 43  1  0
 22 44  1  0
 44 45  2  0
 18 46  1  0
 46 47  1  0
 14 48  1  0
 48 49  2  0
 10 50  1  0
 50 51  2  0
 50  7  1  0
 49 11  1  0
 47 15  1  0
 45 19  1  0
 43 25  1  0
 34 30  1  0
 41 35  1  0
M  END
$$$$
