
     RDKit          3D

 21 20  0  0  0  0  0  0  0  0999 V2000
   -1.3670   14.7631  -19.5177 C   0  0  0  0  0  0  0  0  0  0  0  0
   -0.6641   16.0688  -19.5501 C   0  0  0  0  0  0  0  0  0  0  0  0
   -1.2190   17.1076  -19.9859 O   0  0  0  0  0  0  0  0  0  0  0  0
    0.6200   16.1431  -19.0939 O   0  0  0  0  0  0  0  0  0  0  0  0
    1.3786   17.3089  -19.0743 C   0  0  0  0  0  0  0  0  0  0  0  0
    2.0697   17.7835  -20.1535 C   0  0  0  0  0  0  0  0  0  0  0  0
    2.8314   18.9723  -20.0993 C   0  0  0  0  0  0  0  0  0  0  0  0
    3.5232   19.4104  -21.3273 C   0  0  0  0  0  0  0  0  0  0  0  0
    2.5834   20.3316  -22.1205 C   0  0  0  0  0  0  0  0  0  0  0  0
    4.7606   20.1869  -21.0731 C   0  0  0  0  0  0  0  0  0  0  0  0
    2.9039   19.6954  -18.9514 C   0  0  0  0  0  0  0  0  0  0  0  0
    3.6475   20.9004  -18.8112 O   0  0  0  0  0  0  0  0  0  0  0  0
    3.6261   21.5472  -17.5632 C   0  0  0  0  0  0  0  0  0  0  0  0
    4.3845   22.7930  -17.4539 C   0  0  0  0  0  0  0  0  0  0  0  0
    5.8081   22.7593  -17.6809 N   0  0  0  0  0  0  0  0  0  0  0  0
    6.3428   24.0903  -17.2774 C   0  0  0  0  0  0  0  0  0  0  0  0
    6.0534   22.7389  -19.1320 C   0  0  0  0  0  0  0  0  0  0  0  0
    2.2008   19.2161  -17.8469 C   0  0  0  0  0  0  0  0  0  0  0  0
    1.4597   18.0512  -17.9167 C   0  0  0  0  0  0  0  0  0  0  0  0
    0.7154   17.5550  -16.7273 C   0  0  0  0  0  0  0  0  0  0  0  0
    2.2979   19.5116  -19.0130 Cl  0  0  0  0  0  0  0  0  0  0  0  0
  1  2  1  0
  2  3  2  0
  2  4  1  0
  4  5  1  0
  5  6  2  0
  6  7  1  0
  7  8  1  0
  8  9  1  0
  8 10  1  0
  7 11  2  0
 11 12  1  0
 12 13  1  0
 13 14  1  0
 14 15  1  0
 15 16  1  0
 15 17  1  0
 11 18  1  0
 18 19  2  0
 19 20  1  0
 19  5  1  0
M  END
$$$$
