
     RDKit          3D

 25 28  0  0  0  0  0  0  0  0999 V2000
  -22.8585   12.8853  -30.1594 C   0  0  0  0  0  0  0  0  0  0  0  0
  -21.4908   13.4750  -30.2839 C   0  0  0  0  0  0  0  0  0  0  0  0
  -21.3695   14.6638  -29.3156 C   0  0  0  0  0  0  0  0  0  0  0  0
  -20.2217   15.4763  -29.6682 C   0  0  0  0  0  0  0  0  0  0  0  0
  -18.8772   15.1952  -29.8752 C   0  0  0  0  0  0  0  0  0  0  0  0
  -18.0508   16.1903  -30.1975 C   0  0  0  0  0  0  0  0  0  0  0  0
  -16.6586   16.0729  -30.4409 C   0  0  0  0  0  0  0  0  0  0  0  0
  -15.9741   14.8339  -30.3629 N   0  0  0  0  0  0  0  0  0  0  0  0
  -16.5825   13.6067  -29.8855 C   0  0  0  0  0  0  0  0  0  0  0  0
  -15.7130   13.0031  -28.8036 C   0  0  0  0  0  0  0  0  0  0  0  0
  -14.3108   13.0191  -29.2131 N   0  0  0  0  0  0  0  0  0  0  0  0
  -13.3759   12.4188  -28.3319 C   0  0  0  0  0  0  0  0  0  0  0  0
  -13.6593   11.8783  -27.2254 N   0  0  0  0  0  0  0  0  0  0  0  0
  -12.6569   11.3123  -26.4312 C   0  0  0  0  0  0  0  0  0  0  0  0
  -11.3006   11.9213  -26.7169 C   0  0  0  0  0  0  0  0  0  0  0  0
  -10.1726   10.9623  -26.5365 C   0  0  0  0  0  0  0  0  0  0  0  0
  -11.1059   13.2403  -26.0379 C   0  0  0  0  0  0  0  0  0  0  0  0
  -11.6000   12.2688  -28.5086 S   0  0  0  0  0  0  0  0  0  0  0  0
  -13.8516   13.6025  -30.4397 C   0  0  0  0  0  0  0  0  0  0  0  0
  -14.5714   14.8589  -30.8051 C   0  0  0  0  0  0  0  0  0  0  0  0
  -15.9624   17.1539  -30.7529 N   0  0  0  0  0  0  0  0  0  0  0  0
  -16.4602   18.3777  -30.8634 C   0  0  0  0  0  0  0  0  0  0  0  0
  -17.7693   18.5492  -30.6448 N   0  0  0  0  0  0  0  0  0  0  0  0
  -18.5186   17.4568  -30.3207 C   0  0  0  0  0  0  0  0  0  0  0  0
  -20.2359   17.2886  -29.9683 S   0  0  0  0  0  0  0  0  0  0  0  0
  1  2  1  0
  2  3  1  0
  3  4  1  0
  4  5  2  0
  5  6  1  0
  6  7  2  0
  7  8  1  0
  8  9  1  0
  9 10  1  0
 10 11  1  0
 11 12  1  0
 12 13  2  0
 13 14  1  0
 14 15  1  0
 15 16  1  0
 15 17  1  0
 15 18  1  0
 11 19  1  0
 19 20  1  0
  7 21  1  0
 21 22  2  0
 22 23  1  0
 23 24  2  0
 24 25  1  0
 25  4  1  0
 24  6  1  0
 20  8  1  0
 18 12  1  0
M  END
$$$$
