
     RDKit          3D

  6  6  0  0  0  0  0  0  0  0999 V2000
  -14.1929   13.2346  -26.9177 C   0  0  0  0  0  0  0  0  0  0  0  0
  -14.8131   13.3722  -28.2121 N   0  0  0  0  0  0  0  0  0  0  0  0
  -14.3549   12.7951  -29.3387 C   0  0  0  0  0  0  0  0  0  0  0  0
  -15.2315   13.1806  -30.3313 C   0  0  0  0  0  0  0  0  0  0  0  0
  -16.1872   13.9713  -29.7916 N   0  0  0  0  0  0  0  0  0  0  0  0
  -15.9227   14.0820  -28.4973 C   0  0  0  0  0  0  0  0  0  0  0  0
  1  2  1  0
  2  3  1  0
  3  4  2  0
  4  5  1  0
  5  6  2  0
  6  2  1  0
M  END
$$$$
