
     RDKit          3D

 33 37  0  0  0  0  0  0  0  0999 V2000
  -24.2083   21.1493  -38.8023 C   0  0  0  0  0  0  0  0  0  0  0  0
  -23.3098   22.3546  -38.4671 C   0  0  0  0  0  0  0  0  0  0  0  0
  -22.4502   22.5312  -39.7301 C   0  0  0  0  0  0  0  0  0  0  0  0
  -22.4189   21.9290  -37.3719 C   0  0  0  0  0  0  0  0  0  0  0  0
  -21.8552   23.0887  -36.6612 C   0  0  0  0  0  0  0  0  0  0  0  0
  -22.9061   24.0144  -36.1000 C   0  0  2  0  0  0  0  0  0  0  0  0
  -22.0888   25.2297  -35.7173 C   0  0  0  0  0  0  0  0  0  0  0  0
  -22.1316   26.2074  -36.4945 O   0  0  0  0  0  0  0  0  0  0  0  0
  -21.3334   25.2417  -34.5557 O   0  0  0  0  0  0  0  0  0  0  0  0
  -23.4174   23.4690  -34.8317 C   0  0  0  0  0  0  0  0  0  0  0  0
  -24.6987   24.0134  -34.2557 C   0  0  0  0  0  0  0  0  0  0  0  0
  -25.7900   24.1110  -35.3695 C   0  0  2  0  0  0  0  0  0  0  0  0
  -25.8886   22.6511  -35.7140 C   0  0  0  0  0  0  0  0  0  0  0  0
  -25.0684   24.9388  -36.3488 C   0  0  0  0  0  0  0  0  0  0  0  0
  -25.4164   26.1800  -36.5320 C   0  0  0  0  0  0  0  0  0  0  0  0
  -26.5291   26.8359  -35.7921 C   0  0  0  0  0  0  0  0  0  0  0  0
  -27.5774   25.7852  -35.7334 C   0  0  2  0  0  0  0  0  0  0  0  0
  -28.9674   26.2713  -35.4884 C   0  0  1  0  0  0  0  0  0  0  0  0
  -29.2339   27.0019  -34.2263 C   0  0  0  0  0  0  0  0  0  0  0  0
  -29.2300   27.2973  -36.6064 C   0  0  0  0  0  0  0  0  0  0  0  0
  -30.6679   27.6256  -36.7857 C   0  0  0  0  0  0  0  0  0  0  0  0
  -31.6349   26.5185  -36.7902 C   0  0  2  0  0  0  0  0  0  0  0  0
  -32.8939   27.0207  -36.4049 O   0  0  0  0  0  0  0  0  0  0  0  0
  -31.3194   25.3863  -35.8530 C   0  0  0  0  0  0  0  0  0  0  0  0
  -32.0509   25.5521  -34.5641 C   0  0  0  0  0  0  0  0  0  0  0  0
  -31.9209   24.1399  -36.5345 C   0  0  0  0  0  0  0  0  0  0  0  0
  -29.8641   25.1127  -35.7467 C   0  0  2  0  0  0  0  0  0  0  0  0
  -29.5398   24.0501  -34.7564 C   0  0  0  0  0  0  0  0  0  0  0  0
  -28.1327   23.5673  -35.0860 C   0  0  0  0  0  0  0  0  0  0  0  0
  -27.0696   24.6589  -34.8689 C   0  0  1  0  0  0  0  0  0  0  0  0
  -27.0665   25.0223  -33.4069 C   0  0  0  0  0  0  0  0  0  0  0  0
  -23.9007   24.4267  -37.1267 C   0  0  2  0  0  0  0  0  0  0  0  0
  -24.2144   23.5056  -38.2283 C   0  0  0  0  0  0  0  0  0  0  0  0
  1  2  1  0
  2  3  1  0
  2  4  1  0
  4  5  1  0
  5  6  1  0
  6  7  1  1
  7  8  2  0
  7  9  1  0
  6 10  1  0
 10 11  1  0
 11 12  1  0
 12 13  1  6
 12 14  1  0
 14 15  2  0
 15 16  1  0
 17 16  1  1
 17 18  1  0
 18 19  1  1
 18 20  1  0
 20 21  1  0
 21 22  1  0
 22 23  1  1
 22 24  1  0
 24 25  1  0
 24 26  1  0
 24 27  1  0
 27 28  1  1
 28 29  1  0
 29 30  1  0
 30 31  1  1
 14 32  1  0
 32 33  1  1
 33  2  1  0
 32  6  1  0
 30 12  1  0
 30 17  1  0
 27 18  1  0
M  END
$$$$
