
     RDKit          3D

 31 34  0  0  0  0  0  0  0  0999 V2000
  -31.6040   14.9752  -17.5125 C   0  0  0  0  0  0  0  0  0  0  0  0
  -31.0537   14.7495  -18.7935 O   0  0  0  0  0  0  0  0  0  0  0  0
  -31.5004   13.6922  -19.5618 C   0  0  0  0  0  0  0  0  0  0  0  0
  -32.4304   12.7934  -19.0720 C   0  0  0  0  0  0  0  0  0  0  0  0
  -32.8785   11.7368  -19.8365 C   0  0  0  0  0  0  0  0  0  0  0  0
  -33.8787   10.7654  -19.3168 C   0  0  0  0  0  0  0  0  0  0  0  0
  -34.3537   10.0126  -20.3814 F   0  0  0  0  0  0  0  0  0  0  0  0
  -34.9351   11.3748  -18.7131 F   0  0  0  0  0  0  0  0  0  0  0  0
  -33.2913    9.9125  -18.4275 F   0  0  0  0  0  0  0  0  0  0  0  0
  -32.3726   11.5970  -21.1116 C   0  0  0  0  0  0  0  0  0  0  0  0
  -31.4401   12.5053  -21.5909 C   0  0  0  0  0  0  0  0  0  0  0  0
  -30.9803   13.5675  -20.8425 C   0  0  0  0  0  0  0  0  0  0  0  0
  -29.9915   14.5327  -21.3098 C   0  0  0  0  0  0  0  0  0  0  0  0
  -30.3298   15.8357  -21.4920 N   0  0  0  0  0  0  0  0  0  0  0  0
  -29.4622   16.7698  -21.9210 C   0  0  0  0  0  0  0  0  0  0  0  0
  -28.1860   16.4374  -22.1945 N   0  0  0  0  0  0  0  0  0  0  0  0
  -27.7624   15.1595  -22.0411 C   0  0  0  0  0  0  0  0  0  0  0  0
  -26.4614   14.8428  -22.3303 C   0  0  0  0  0  0  0  0  0  0  0  0
  -26.0368   13.5482  -22.1799 C   0  0  0  0  0  0  0  0  0  0  0  0
  -24.3595   13.1009  -22.5460 S   0  0  0  0  0  6  0  0  0  0  0  0
  -23.6885   14.3542  -23.0437 O   0  0  0  0  0  0  0  0  0  0  0  0
  -24.3143   12.1169  -23.6836 O   0  0  0  0  0  0  0  0  0  0  0  0
  -23.5722   12.5583  -21.1460 N   0  0  0  0  0  0  0  0  0  0  0  0
  -23.3542   13.4802  -20.0769 C   0  0  0  0  0  0  0  0  0  0  0  0
  -23.0243   13.5447  -18.9376 N   0  0  0  0  0  0  0  0  0  0  0  0
  -22.9030   14.5759  -18.1546 C   0  0  0  0  0  0  0  0  0  0  0  0
  -23.2087   15.8049  -18.7449 C   0  0  0  0  0  0  0  0  0  0  0  0
  -23.6518   15.3217  -20.4190 S   0  0  0  0  0  0  0  0  0  0  0  0
  -26.9347   12.6022  -21.7412 C   0  0  0  0  0  0  0  0  0  0  0  0
  -28.2423   12.9250  -21.4514 C   0  0  0  0  0  0  0  0  0  0  0  0
  -28.6824   14.2070  -21.5943 C   0  0  0  0  0  0  0  0  0  0  0  0
  1  2  1  0
  2  3  1  0
  3  4  2  0
  4  5  1  0
  5  6  1  0
  6  7  1  0
  6  8  1  0
  6  9  1  0
  5 10  2  0
 10 11  1  0
 11 12  2  0
 12 13  1  0
 13 14  2  0
 14 15  1  0
 15 16  2  0
 16 17  1  0
 17 18  2  0
 18 19  1  0
 19 20  1  0
 20 21  2  0
 20 22  2  0
 20 23  1  0
 23 24  1  0
 24 25  2  0
 25 26  1  0
 26 27  2  0
 27 28  1  0
 19 29  2  0
 29 30  1  0
 30 31  2  0
 12  3  1  0
 31 13  1  0
 31 17  1  0
 28 24  1  0
M  END
$$$$
