
     RDKit          3D

 33 37  0  0  0  0  0  0  0  0999 V2000
  -20.9031   14.9697  -38.5335 C   0  0  0  0  0  0  0  0  0  0  0  0
  -21.0952   15.0305  -37.1041 N   0  0  0  0  0  0  0  0  0  0  0  0
  -22.4442   14.8199  -36.6924 C   0  0  0  0  0  0  0  0  0  0  0  0
  -22.4950   13.7203  -35.6287 C   0  0  0  0  0  0  0  0  0  0  0  0
  -21.6630   14.1660  -34.5513 N   0  0  0  0  0  0  0  0  0  0  0  0
  -22.0859   14.4082  -33.2324 C   0  0  0  0  0  0  0  0  0  0  0  0
  -23.3923   14.7551  -32.9320 C   0  0  0  0  0  0  0  0  0  0  0  0
  -23.7573   14.9816  -31.6212 C   0  0  0  0  0  0  0  0  0  0  0  0
  -22.8120   14.8606  -30.6062 C   0  0  0  0  0  0  0  0  0  0  0  0
  -21.5133   14.5177  -30.8879 C   0  0  0  0  0  0  0  0  0  0  0  0
  -20.5665   14.3994  -29.8645 N   0  0  0  0  0  0  0  0  0  0  0  0
  -19.2412   14.9471  -29.9774 C   0  0  0  0  0  0  0  0  0  0  0  0
  -18.9435   16.2582  -30.0346 N   0  0  0  0  0  0  0  0  0  0  0  0
  -17.5930   16.4007  -30.1425 C   0  0  0  0  0  0  0  0  0  0  0  0
  -16.7901   17.5348  -30.2350 C   0  0  0  0  0  0  0  0  0  0  0  0
  -17.4727   18.8259  -30.2114 C   0  0  0  0  0  0  0  0  0  0  0  0
  -16.9827   19.7873  -29.3554 C   0  0  0  0  0  0  0  0  0  0  0  0
  -17.5742   21.0280  -29.2737 C   0  0  0  0  0  0  0  0  0  0  0  0
  -18.6700   21.2844  -30.0708 C   0  0  0  0  0  0  0  0  0  0  0  0
  -19.4339   22.8564  -29.9771 S   0  0  0  0  0  6  0  0  0  0  0  0
  -20.2213   23.1213  -28.4223 C   0  0  0  0  0  0  0  0  0  0  0  0
  -20.4898   22.9059  -31.0668 O   0  0  0  0  0  0  0  0  0  0  0  0
  -18.3846   23.8879  -30.2321 O   0  0  0  0  0  0  0  0  0  0  0  0
  -19.1819   20.3219  -30.9457 C   0  0  0  0  0  0  0  0  0  0  0  0
  -18.5663   19.1038  -30.9967 C   0  0  0  0  0  0  0  0  0  0  0  0
  -15.4284   17.4227  -30.3385 C   0  0  0  0  0  0  0  0  0  0  0  0
  -14.8787   16.1549  -30.3480 C   0  0  0  0  0  0  0  0  0  0  0  0
  -15.7263   15.0737  -30.2532 C   0  0  0  0  0  0  0  0  0  0  0  0
  -17.0642   15.1640  -30.1511 N   0  0  0  0  0  0  0  0  0  0  0  0
  -18.0661   14.3038  -30.0513 N   0  0  0  0  0  0  0  0  0  0  0  0
  -21.1598   14.2946  -32.1914 C   0  0  0  0  0  0  0  0  0  0  0  0
  -20.2471   14.3790  -34.9049 C   0  0  0  0  0  0  0  0  0  0  0  0
  -20.1027   14.2808  -36.4016 C   0  0  0  0  0  0  0  0  0  0  0  0
  1  2  1  0
  2  3  1  0
  3  4  1  0
  4  5  1  0
  5  6  1  0
  6  7  2  0
  7  8  1  0
  8  9  2  0
  9 10  1  0
 10 11  1  0
 11 12  1  0
 12 13  1  0
 13 14  2  0
 14 15  1  0
 15 16  1  0
 16 17  2  0
 17 18  1  0
 18 19  2  0
 19 20  1  0
 20 21  1  0
 20 22  2  0
 20 23  2  0
 19 24  1  0
 24 25  2  0
 15 26  2  0
 26 27  1  0
 27 28  2  0
 28 29  1  0
 29 30  1  0
 10 31  2  0
  5 32  1  0
 32 33  1  0
 33  2  1  0
 31  6  1  0
 30 12  2  0
 29 14  1  0
 25 16  1  0
M  END
$$$$
