
     RDKit          3D

 32 35  0  0  0  0  0  0  0  0999 V2000
  -22.0369   35.6599  -24.0499 C   0  0  0  0  0  0  0  0  0  0  0  0
  -21.6278   36.5935  -23.0930 O   0  0  0  0  0  0  0  0  0  0  0  0
  -20.6439   36.3134  -22.1563 C   0  0  0  0  0  0  0  0  0  0  0  0
  -20.8850   35.2868  -21.2549 C   0  0  0  0  0  0  0  0  0  0  0  0
  -19.9649   34.9534  -20.2876 C   0  0  0  0  0  0  0  0  0  0  0  0
  -20.1597   33.8743  -19.3029 C   0  0  0  0  0  0  0  0  0  0  0  0
  -18.8235   35.6676  -20.2570 N   0  0  0  0  0  0  0  0  0  0  0  0
  -18.5778   36.6531  -21.1145 C   0  0  0  0  0  0  0  0  0  0  0  0
  -17.4882   37.2762  -21.0242 O   0  0  0  0  0  0  0  0  0  0  0  0
  -19.4890   37.0237  -22.1171 C   0  0  0  0  0  0  0  0  0  0  0  0
  -19.0681   38.0716  -23.0571 C   0  0  0  0  0  0  0  0  0  0  0  0
  -19.2054   39.3840  -22.5148 N   0  0  0  0  0  0  0  0  0  0  0  0
  -19.0458   40.6177  -23.1442 C   0  0  0  0  0  0  0  0  0  0  0  0
  -19.1431   40.6878  -24.3882 O   0  0  0  0  0  0  0  0  0  0  0  0
  -18.7710   41.8472  -22.3816 C   0  0  0  0  0  0  0  0  0  0  0  0
  -17.5359   42.1749  -21.8251 C   0  0  0  0  0  0  0  0  0  0  0  0
  -16.3248   41.3150  -21.9892 C   0  0  0  0  0  0  0  0  0  0  0  0
  -17.6164   43.3356  -21.1518 N   0  0  0  0  0  0  0  0  0  0  0  0
  -16.5592   43.9960  -20.4551 C   0  0  2  0  0  0  0  0  0  0  0  0
  -15.6571   43.0188  -19.7717 C   0  0  0  0  0  0  0  0  0  0  0  0
  -16.9838   45.1598  -19.6020 C   0  0  0  0  0  0  0  0  0  0  0  0
  -17.0903   46.4425  -20.4272 C   0  0  0  0  0  0  0  0  0  0  0  0
  -17.6644   47.4755  -19.4477 C   0  0  0  0  0  0  0  0  0  0  0  0
  -16.7747   47.6959  -18.4209 O   0  0  0  0  0  0  0  0  0  0  0  0
  -16.4124   46.5819  -17.7105 C   0  0  0  0  0  0  0  0  0  0  0  0
  -15.8961   45.4454  -18.5684 C   0  0  0  0  0  0  0  0  0  0  0  0
  -18.9028   43.7715  -21.2630 C   0  0  0  0  0  0  0  0  0  0  0  0
  -19.5512   44.8810  -20.7642 C   0  0  0  0  0  0  0  0  0  0  0  0
  -20.8812   45.0947  -20.9993 C   0  0  0  0  0  0  0  0  0  0  0  0
  -21.5611   44.1811  -21.7421 C   0  0  0  0  0  0  0  0  0  0  0  0
  -20.9868   43.0385  -22.2812 C   0  0  0  0  0  0  0  0  0  0  0  0
  -19.6285   42.8463  -22.0286 C   0  0  0  0  0  0  0  0  0  0  0  0
  1  2  1  0
  2  3  1  0
  3  4  1  0
  4  5  2  0
  5  6  1  0
  5  7  1  0
  7  8  1  0
  8  9  2  0
  8 10  1  0
 10 11  1  0
 11 12  1  0
 12 13  1  0
 13 14  2  0
 13 15  1  0
 15 16  2  0
 16 17  1  0
 16 18  1  0
 18 19  1  0
 19 20  1  1
 19 21  1  0
 21 22  1  0
 22 23  1  0
 23 24  1  0
 24 25  1  0
 25 26  1  0
 18 27  1  0
 27 28  2  0
 28 29  1  0
 29 30  2  0
 30 31  1  0
 31 32  2  0
 10  3  2  0
 32 15  1  0
 26 21  1  0
 32 27  1  0
M  END
$$$$
