
     RDKit          3D

 32 35  0  0  0  0  0  0  0  0999 V2000
  -15.0497   46.1860  -21.9841 C   0  0  0  0  0  0  0  0  0  0  0  0
  -14.2529   45.8649  -20.8625 O   0  0  0  0  0  0  0  0  0  0  0  0
  -14.7050   44.8784  -20.0003 C   0  0  0  0  0  0  0  0  0  0  0  0
  -15.6917   44.0131  -20.3754 C   0  0  0  0  0  0  0  0  0  0  0  0
  -16.1620   43.0257  -19.5464 C   0  0  0  0  0  0  0  0  0  0  0  0
  -17.2057   42.1180  -19.9553 C   0  0  0  0  0  0  0  0  0  0  0  0
  -17.3745   40.9876  -19.3827 O   0  0  0  0  0  0  0  0  0  0  0  0
  -18.1394   42.3774  -21.0169 N   0  0  0  0  0  0  0  0  0  0  0  0
  -19.2241   41.4902  -21.2396 C   0  0  0  0  0  0  0  0  0  0  0  0
  -18.9370   40.1099  -21.3847 C   0  0  0  0  0  0  0  0  0  0  0  0
  -19.9098   39.1690  -21.5865 C   0  0  0  0  0  0  0  0  0  0  0  0
  -19.5588   37.8386  -21.7199 O   0  0  0  0  0  0  0  0  0  0  0  0
  -19.0246   37.1509  -20.6049 C   0  0  0  0  0  0  0  0  0  0  0  0
  -19.1206   37.9504  -19.4703 F   0  0  0  0  0  0  0  0  0  0  0  0
  -17.7173   36.7735  -20.8459 F   0  0  0  0  0  0  0  0  0  0  0  0
  -19.7303   35.9940  -20.3171 F   0  0  0  0  0  0  0  0  0  0  0  0
  -21.2070   39.6195  -21.6451 C   0  0  0  0  0  0  0  0  0  0  0  0
  -21.5064   40.9552  -21.5073 C   0  0  0  0  0  0  0  0  0  0  0  0
  -20.5031   41.9246  -21.3001 C   0  0  0  0  0  0  0  0  0  0  0  0
  -20.8692   43.2886  -21.2072 N   0  0  0  0  0  0  0  0  0  0  0  0
  -21.8428   43.9516  -20.6022 C   0  0  0  0  0  0  0  0  0  0  0  0
  -21.7100   45.2995  -20.8295 N   0  0  0  0  0  0  0  0  0  0  0  0
  -20.6232   45.4578  -21.5947 C   0  0  0  0  0  0  0  0  0  0  0  0
  -20.1331   44.2555  -21.8117 N   0  0  0  0  0  0  0  0  0  0  0  0
  -15.5979   42.9370  -18.3106 C   0  0  0  0  0  0  0  0  0  0  0  0
  -14.5923   43.7950  -17.8875 C   0  0  0  0  0  0  0  0  0  0  0  0
  -14.1202   44.7931  -18.7293 C   0  0  0  0  0  0  0  0  0  0  0  0
  -13.1698   45.6702  -18.4347 O   0  0  0  0  0  0  0  0  0  0  0  0
  -12.5023   46.3864  -17.5360 C   0  0  0  0  0  0  0  0  0  0  0  0
  -11.2999   47.1577  -17.9768 C   0  0  0  0  0  0  0  0  0  0  0  0
   -9.9421   46.9959  -17.4385 C   0  0  0  0  0  0  0  0  0  0  0  0
  -10.7615   48.1077  -16.9109 C   0  0  0  0  0  0  0  0  0  0  0  0
  1  2  1  0
  2  3  1  0
  3  4  2  0
  4  5  1  0
  5  6  1  0
  6  7  2  0
  6  8  1  0
  8  9  1  0
  9 10  2  0
 10 11  1  0
 11 12  1  0
 12 13  1  0
 13 14  1  0
 13 15  1  0
 13 16  1  0
 11 17  2  0
 17 18  1  0
 18 19  2  0
 19 20  1  0
 20 21  1  0
 21 22  2  0
 22 23  1  0
 23 24  2  0
  5 25  2  0
 25 26  1  0
 26 27  2  0
 27 28  1  0
 28 29  1  0
 29 30  1  0
 30 31  1  0
 31 32  1  0
 27  3  1  0
 32 30  1  0
 19  9  1  0
 24 20  1  0
M  END
$$$$
