
     RDKit          3D

 44 46  0  0  0  0  0  0  0  0999 V2000
  -27.7071   15.7640  -23.2093 Cl  0  0  0  0  0  0  0  0  0  0  0  0
  -35.3478   24.7344  -25.6337 N   0  0  0  0  0  0  0  0  0  0  0  0
  -35.2111   23.2872  -25.5483 C   0  0  0  0  0  0  0  0  0  0  0  0
  -33.8313   22.8684  -26.0135 C   0  0  0  0  0  0  0  0  0  0  0  0
  -33.6659   21.5018  -25.9403 O   0  0  0  0  0  0  0  0  0  0  0  0
  -34.5263   20.7526  -26.6981 C   0  0  0  0  0  0  0  0  0  0  0  0
  -34.1465   19.2802  -26.4477 C   0  0  0  0  0  0  0  0  0  0  0  0
  -34.2873   18.9877  -25.1069 O   0  0  0  0  0  0  0  0  0  0  0  0
  -33.9764   17.6683  -24.8250 C   0  0  0  0  0  0  0  0  0  0  0  0
  -32.5674   17.3200  -25.1623 C   0  0  0  0  0  0  0  0  0  0  0  0
  -31.6685   18.1645  -24.4005 N   0  0  0  0  0  0  0  0  0  0  0  0
  -30.2772   18.0341  -24.5042 C   0  0  0  0  0  0  0  0  0  0  0  0
  -29.8087   17.1605  -25.2732 O   0  0  0  0  0  0  0  0  0  0  0  0
  -29.3229   18.8891  -23.7406 C   0  0  0  0  0  0  0  0  0  0  0  0
  -28.5435   17.9807  -22.8273 C   0  0  0  0  0  0  0  0  0  0  0  0
  -28.8465   17.8601  -21.4997 C   0  0  0  0  0  0  0  0  0  0  0  0
  -28.1241   16.9936  -20.6817 C   0  0  0  0  0  0  0  0  0  0  0  0
  -27.0824   16.2374  -21.2035 C   0  0  0  0  0  0  0  0  0  0  0  0
  -26.3193   15.3697  -20.4029 N   0  0  0  0  0  0  0  0  0  0  0  0
  -25.6981   14.1691  -20.8635 C   0  0  0  0  0  0  0  0  0  0  0  0
  -25.9587   13.7019  -22.0928 N   0  0  0  0  0  0  0  0  0  0  0  0
  -25.3951   12.5518  -22.5894 C   0  0  0  0  0  0  0  0  0  0  0  0
  -25.7608   12.1397  -23.8805 N   0  0  0  0  0  0  0  0  0  0  0  0
  -25.1715   10.9910  -24.5075 C   0  0  0  0  0  0  0  0  0  0  0  0
  -25.2476    9.8006  -23.6351 C   0  0  0  0  0  0  0  0  0  0  0  0
  -26.4066    9.0609  -23.5390 C   0  0  0  0  0  0  0  0  0  0  0  0
  -26.5005    7.9352  -22.7397 C   0  0  0  0  0  0  0  0  0  0  0  0
  -25.4080    7.5205  -22.0053 C   0  0  0  0  0  0  0  0  0  0  0  0
  -25.4872    6.4289  -21.2219 F   0  0  0  0  0  0  0  0  0  0  0  0
  -24.2327    8.2298  -22.0735 C   0  0  0  0  0  0  0  0  0  0  0  0
  -24.1768    9.3350  -22.8724 C   0  0  0  0  0  0  0  0  0  0  0  0
  -24.5606   11.9213  -21.7614 N   0  0  0  0  0  0  0  0  0  0  0  0
  -24.2433   12.3177  -20.5174 C   0  0  0  0  0  0  0  0  0  0  0  0
  -23.3540   11.6191  -19.6713 N   0  0  0  0  0  0  0  0  0  0  0  0
  -22.0339   12.0667  -19.4007 C   0  0  0  0  0  0  0  0  0  0  0  0
  -21.0621   12.1145  -20.5456 C   0  0  0  0  0  0  0  0  0  0  0  0
  -19.7563   12.6029  -19.9895 C   0  0  0  0  0  0  0  0  0  0  0  0
  -18.7365   13.0971  -20.9246 C   0  0  0  0  0  0  0  0  0  0  0  0
  -19.1675   12.8290  -22.3457 C   0  0  0  0  0  0  0  0  0  0  0  0
  -20.4898   13.6059  -22.4754 C   0  0  0  0  0  0  0  0  0  0  0  0
  -21.5458   12.7971  -21.7507 C   0  0  0  0  0  0  0  0  0  0  0  0
  -24.8491   13.4736  -20.1007 N   0  0  0  0  0  0  0  0  0  0  0  0
  -26.8064   16.3828  -22.5318 C   0  0  0  0  0  0  0  0  0  0  0  0
  -27.5279   17.2529  -23.3647 C   0  0  0  0  0  0  0  0  0  0  0  0
  2  3  1  0
  3  4  1  0
  4  5  1  0
  5  6  1  0
  6  7  1  0
  7  8  1  0
  8  9  1  0
  9 10  1  0
 10 11  1  0
 11 12  1  0
 12 13  2  0
 12 14  1  0
 14 15  1  0
 15 16  2  0
 16 17  1  0
 17 18  2  0
 18 19  1  0
 19 20  1  0
 20 21  2  0
 21 22  1  0
 22 23  1  0
 23 24  1  0
 24 25  1  0
 25 26  2  0
 26 27  1  0
 27 28  2  0
 28 29  1  0
 28 30  1  0
 30 31  2  0
 22 32  2  0
 32 33  1  0
 33 34  1  0
 34 35  1  0
 35 36  1  0
 36 37  1  0
 37 38  1  0
 38 39  1  0
 39 40  1  0
 40 41  1  0
 33 42  2  0
 18 43  1  0
 43 44  2  0
 44 15  1  0
 42 20  1  0
 31 25  1  0
 41 36  1  0
M  END
$$$$
