
     RDKit          3D

 23 23  0  0  0  0  0  0  0  0999 V2000
  -12.7344   12.6238  -28.1991 C   0  0  0  0  0  0  0  0  0  0  0  0
  -13.6952   13.3565  -29.2009 C   0  0  0  0  0  0  0  0  0  0  0  0
  -13.3686   12.7649  -30.5799 C   0  0  0  0  0  0  0  0  0  0  0  0
  -14.9950   13.0436  -28.7604 N   0  0  0  0  0  0  0  0  0  0  0  0
  -16.0164   13.9632  -29.0247 C   0  0  0  0  0  0  0  0  0  0  0  0
  -16.4062   14.1410  -30.4538 C   0  0  0  0  0  0  0  0  0  0  0  0
  -15.4257   14.6520  -31.2739 O   0  0  0  0  0  0  0  0  0  0  0  0
  -17.6932   14.9599  -30.6027 C   0  0  0  0  0  0  0  0  0  0  0  0
  -17.4033   16.3050  -30.2673 O   0  0  0  0  0  0  0  0  0  0  0  0
  -18.4244   17.2723  -30.3216 C   0  0  0  0  0  0  0  0  0  0  0  0
  -19.7067   16.9279  -30.6915 C   0  0  0  0  0  0  0  0  0  0  0  0
  -20.7138   17.8785  -30.7466 C   0  0  0  0  0  0  0  0  0  0  0  0
  -20.4608   19.1965  -30.4326 C   0  0  0  0  0  0  0  0  0  0  0  0
  -21.5671   20.2260  -30.4935 C   0  0  0  0  0  0  0  0  0  0  0  0
  -21.6499   20.8422  -31.8508 C   0  0  0  0  0  0  0  0  0  0  0  0
  -22.6267   21.7483  -32.0320 O   0  0  0  0  0  0  0  0  0  0  0  0
  -22.7372   22.8990  -31.3887 C   0  0  0  0  0  0  0  0  0  0  0  0
  -22.8801   22.9331  -29.9008 C   0  0  0  0  0  0  0  0  0  0  0  0
  -23.0338   24.3400  -29.3047 C   0  0  0  0  0  0  0  0  0  0  0  0
  -21.7726   23.6389  -29.1094 C   0  0  0  0  0  0  0  0  0  0  0  0
  -19.1816   19.5313  -30.0653 C   0  0  0  0  0  0  0  0  0  0  0  0
  -18.1593   18.5731  -30.0081 C   0  0  0  0  0  0  0  0  0  0  0  0
  -18.7910   18.2530  -30.1787 Cl  0  0  0  0  0  0  0  0  0  0  0  0
  1  2  1  0
  2  3  1  0
  2  4  1  0
  4  5  1  0
  5  6  1  0
  6  7  1  0
  6  8  1  0
  8  9  1  0
  9 10  1  0
 10 11  2  0
 11 12  1  0
 12 13  2  0
 13 14  1  0
 14 15  1  0
 15 16  1  0
 16 17  1  0
 17 18  1  0
 18 19  1  0
 19 20  1  0
 13 21  1  0
 21 22  2  0
 22 10  1  0
 20 18  1  0
M  END
$$$$
