
     RDKit          3D

 35 37  0  0  0  0  0  0  0  0999 V2000
  -20.2606   37.6469  -21.6639 Cl  0  0  0  0  0  0  0  0  0  0  0  0
  -19.9211   38.4883  -25.3528 O   0  0  0  0  0  0  0  0  0  0  0  0
  -20.4525   38.7582  -24.2430 C   0  0  0  0  0  0  0  0  0  0  0  0
  -19.5993   39.3823  -23.2129 C   0  0  1  0  0  0  0  0  0  0  0  0
  -19.0228   40.6662  -23.7921 C   0  0  0  0  0  0  0  0  0  0  0  0
  -18.1416   41.3893  -22.8567 C   0  0  0  0  0  0  0  0  0  0  0  0
  -16.7895   41.0337  -22.8053 C   0  0  0  0  0  0  0  0  0  0  0  0
  -15.9624   41.7103  -21.9478 C   0  0  0  0  0  0  0  0  0  0  0  0
  -16.4526   42.7207  -21.1521 C   0  0  0  0  0  0  0  0  0  0  0  0
  -17.7763   43.0952  -21.1783 C   0  0  0  0  0  0  0  0  0  0  0  0
  -18.3055   44.1855  -20.3198 C   0  0  0  0  0  0  0  0  0  0  0  0
  -18.3353   45.3374  -21.0970 F   0  0  0  0  0  0  0  0  0  0  0  0
  -17.4813   44.3482  -19.2279 F   0  0  0  0  0  0  0  0  0  0  0  0
  -19.5838   43.8603  -19.9568 F   0  0  0  0  0  0  0  0  0  0  0  0
  -18.6100   42.3960  -22.0588 C   0  0  0  0  0  0  0  0  0  0  0  0
  -20.3071   39.6009  -21.9992 N   0  0  0  0  0  0  0  0  0  0  0  0
  -19.6117   38.8208  -20.6485 S   0  0  0  0  0  6  0  0  0  0  0  0
  -18.2099   39.3147  -20.3828 O   0  0  0  0  0  0  0  0  0  0  0  0
  -20.4304   39.1877  -19.4341 O   0  0  0  0  0  0  0  0  0  0  0  0
  -19.5648   37.0881  -20.7999 C   0  0  0  0  0  0  0  0  0  0  0  0
  -18.4742   36.4686  -21.3493 C   0  0  0  0  0  0  0  0  0  0  0  0
  -18.4381   35.1012  -21.4685 C   0  0  0  0  0  0  0  0  0  0  0  0
  -17.3818   34.4452  -22.0050 F   0  0  0  0  0  0  0  0  0  0  0  0
  -19.5211   34.3687  -21.0239 C   0  0  0  0  0  0  0  0  0  0  0  0
  -20.6283   34.9886  -20.4666 C   0  0  0  0  0  0  0  0  0  0  0  0
  -20.6481   36.3615  -20.3546 C   0  0  0  0  0  0  0  0  0  0  0  0
  -21.8109   34.2384  -19.9773 C   0  0  0  0  0  0  0  0  0  0  0  0
  -21.4145   32.7906  -19.8542 C   0  0  0  0  0  0  0  0  0  0  0  0
  -20.8417   32.4058  -21.1503 N   0  0  0  0  0  0  0  0  0  0  0  0
  -19.4761   32.8930  -21.1552 C   0  0  0  0  0  0  0  0  0  0  0  0
  -21.8097   38.4669  -24.0171 N   0  0  0  0  0  0  0  0  0  0  0  0
  -22.6795   37.8395  -25.0242 C   0  0  0  0  0  0  0  0  0  0  0  0
  -24.0063   38.5190  -24.6700 C   0  0  0  0  0  0  0  0  0  0  0  0
  -24.0126   38.2844  -23.1741 C   0  0  0  0  0  0  0  0  0  0  0  0
  -22.5807   38.7173  -22.8189 C   0  0  0  0  0  0  0  0  0  0  0  0
  2  3  2  0
  3  4  1  0
  4  5  1  6
  5  6  1  0
  6  7  2  0
  7  8  1  0
  8  9  2  0
  9 10  1  0
 10 11  1  0
 11 12  1  0
 11 13  1  0
 11 14  1  0
 10 15  2  0
  4 16  1  0
 16 17  1  0
 17 18  2  0
 17 19  2  0
 17 20  1  0
 20 21  2  0
 21 22  1  0
 22 23  1  0
 22 24  2  0
 24 25  1  0
 25 26  2  0
 25 27  1  0
 27 28  1  0
 28 29  1  0
 29 30  1  0
  3 31  1  0
 31 32  1  0
 32 33  1  0
 33 34  1  0
 34 35  1  0
 15  6  1  0
 26 20  1  0
 35 31  1  0
 30 24  1  0
M  END
$$$$
