
     RDKit          3D

 21 23  0  0  0  0  0  0  0  0999 V2000
  -26.8943   31.2279  -37.3864 C   0  0  0  0  0  0  0  0  0  0  0  0
  -26.3661   29.9849  -36.7954 C   0  0  0  0  0  0  0  0  0  0  0  0
  -26.9697   28.7944  -36.7481 N   0  0  0  0  0  0  0  0  0  0  0  0
  -26.1410   27.9093  -36.1191 C   0  0  0  0  0  0  0  0  0  0  0  0
  -26.3349   26.5698  -35.8421 C   0  0  0  0  0  0  0  0  0  0  0  0
  -27.5161   25.9628  -36.2240 O   0  0  0  0  0  0  0  0  0  0  0  0
  -27.4619   24.6195  -36.6729 C   0  0  0  0  0  0  0  0  0  0  0  0
  -28.8573   24.2715  -37.0850 C   0  0  0  0  0  0  0  0  0  0  0  0
  -29.1822   24.2717  -38.4181 C   0  0  0  0  0  0  0  0  0  0  0  0
  -30.4518   23.9551  -38.8765 C   0  0  0  0  0  0  0  0  0  0  0  0
  -31.4130   23.6300  -37.9432 C   0  0  0  0  0  0  0  0  0  0  0  0
  -31.0876   23.6286  -36.5893 C   0  0  0  0  0  0  0  0  0  0  0  0
  -29.8178   23.9480  -36.1728 C   0  0  0  0  0  0  0  0  0  0  0  0
  -25.3170   25.9094  -35.1887 C   0  0  0  0  0  0  0  0  0  0  0  0
  -24.1324   26.5489  -34.8142 C   0  0  0  0  0  0  0  0  0  0  0  0
  -23.9991   27.8861  -35.1185 C   0  0  0  0  0  0  0  0  0  0  0  0
  -25.0008   28.5302  -35.7599 N   0  0  0  0  0  0  0  0  0  0  0  0
  -25.1446   29.8166  -36.1809 C   0  0  0  0  0  0  0  0  0  0  0  0
  -24.1278   30.8859  -35.9992 C   0  0  0  0  0  0  0  0  0  0  0  0
  -24.7526   32.1411  -36.4655 C   0  0  0  0  0  0  0  0  0  0  0  0
  -25.2555   33.1230  -36.8441 N   0  0  0  0  0  0  0  0  0  0  0  0
  1  2  1  0
  2  3  1  0
  3  4  2  0
  4  5  1  0
  5  6  1  0
  6  7  1  0
  7  8  1  0
  8  9  2  0
  9 10  1  0
 10 11  2  0
 11 12  1  0
 12 13  2  0
  5 14  2  0
 14 15  1  0
 15 16  2  0
 16 17  1  0
 17 18  1  0
 18 19  1  0
 19 20  1  0
 20 21  3  0
 18  2  2  0
 17  4  1  0
 13  8  1  0
M  END
$$$$
