
     RDKit          3D

 27 30  0  0  0  0  0  0  0  0999 V2000
  -20.6287   26.0133  -27.0601 N   0  0  0  0  0  0  0  0  0  0  0  0
  -21.6299   25.7513  -27.6132 C   0  0  0  0  0  0  0  0  0  0  0  0
  -22.8612   25.4501  -28.3076 C   0  0  0  0  0  0  0  0  0  0  0  0
  -23.4065   24.1774  -27.7639 C   0  0  0  0  0  0  0  0  0  0  0  0
  -22.9516   23.6718  -26.5887 C   0  0  0  0  0  0  0  0  0  0  0  0
  -23.4694   22.4812  -26.1242 C   0  0  0  0  0  0  0  0  0  0  0  0
  -24.4213   21.8438  -26.8561 N   0  0  0  0  0  0  0  0  0  0  0  0
  -24.8535   22.3566  -28.0085 C   0  0  0  0  0  0  0  0  0  0  0  0
  -25.8248   21.7125  -28.8528 N   0  0  0  0  0  0  0  0  0  0  0  0
  -25.9457   22.1422  -30.2511 C   0  0  0  0  0  0  0  0  0  0  0  0
  -24.8104   21.5025  -31.0199 C   0  0  0  0  0  0  0  0  0  0  0  0
  -25.0272   21.7850  -32.4435 C   0  0  0  0  0  0  0  0  0  0  0  0
  -24.6179   20.9129  -33.4142 C   0  0  0  0  0  0  0  0  0  0  0  0
  -24.8229   21.1802  -34.7723 C   0  0  0  0  0  0  0  0  0  0  0  0
  -25.4584   22.3643  -35.1127 C   0  0  0  0  0  0  0  0  0  0  0  0
  -25.8618   23.2259  -34.1419 N   0  0  0  0  0  0  0  0  0  0  0  0
  -25.6628   22.9664  -32.8317 C   0  0  0  0  0  0  0  0  0  0  0  0
  -24.3387   23.5182  -28.4451 N   0  0  0  0  0  0  0  0  0  0  0  0
  -23.7949   26.5543  -28.0787 C   0  0  0  0  0  0  0  0  0  0  0  0
  -24.6981   27.1693  -28.8080 N   0  0  0  0  0  0  0  0  0  0  0  0
  -25.4119   28.1487  -28.3914 C   0  0  0  0  0  0  0  0  0  0  0  0
  -26.4013   28.8434  -29.1393 C   0  0  0  0  0  0  0  0  0  0  0  0
  -27.0824   29.8652  -28.5593 C   0  0  0  0  0  0  0  0  0  0  0  0
  -26.9058   30.3125  -27.2730 C   0  0  0  0  0  0  0  0  0  0  0  0
  -25.9349   29.6384  -26.5250 C   0  0  0  0  0  0  0  0  0  0  0  0
  -25.2535   28.6148  -27.1085 C   0  0  0  0  0  0  0  0  0  0  0  0
  -23.9586   27.4956  -26.5391 S   0  0  0  0  0  0  0  0  0  0  0  0
  1  2  3  0
  2  3  1  0
  3  4  1  0
  4  5  2  0
  5  6  1  0
  6  7  2  0
  7  8  1  0
  8  9  1  0
  9 10  1  0
 10 11  1  0
 11 12  1  0
 12 13  2  0
 13 14  1  0
 14 15  2  0
 15 16  1  0
 16 17  2  0
  8 18  2  0
  3 19  1  0
 19 20  2  0
 20 21  1  0
 21 22  2  0
 22 23  1  0
 23 24  2  0
 24 25  1  0
 25 26  2  0
 26 27  1  0
 18  4  1  0
 27 19  1  0
 17 12  1  0
 26 21  1  0
M  END
$$$$
