
     RDKit          3D

 17 18  0  0  0  0  0  0  0  0999 V2000
  -18.6049   18.9873  -30.7470 C   0  0  0  0  0  0  0  0  0  0  0  0
  -18.7054   17.5143  -30.9024 C   0  0  0  0  0  0  0  0  0  0  0  0
  -17.6580   16.6561  -30.6705 C   0  0  0  0  0  0  0  0  0  0  0  0
  -16.3601   17.0545  -30.2582 N   0  0  0  0  0  0  0  0  0  0  0  0
  -16.0216   18.4635  -30.0886 C   0  0  0  0  0  0  0  0  0  0  0  0
  -15.3124   16.0956  -29.9861 C   0  0  0  0  0  0  0  0  0  0  0  0
  -18.1560   15.3928  -30.9237 C   0  0  0  0  0  0  0  0  0  0  0  0
  -17.5103   14.3344  -30.8261 O   0  0  0  0  0  0  0  0  0  0  0  0
  -19.4654   15.4896  -31.2971 N   0  0  0  0  0  0  0  0  0  0  0  0
  -20.3009   14.3891  -31.6347 C   0  0  0  0  0  0  0  0  0  0  0  0
  -20.2475   13.7423  -32.8530 C   0  0  0  0  0  0  0  0  0  0  0  0
  -21.0650   12.6763  -33.1647 C   0  0  0  0  0  0  0  0  0  0  0  0
  -21.9867   12.2218  -32.2243 C   0  0  0  0  0  0  0  0  0  0  0  0
  -22.0567   12.8445  -31.0166 C   0  0  0  0  0  0  0  0  0  0  0  0
  -21.2274   13.9090  -30.7295 C   0  0  0  0  0  0  0  0  0  0  0  0
  -19.7818   16.7743  -31.2794 N   0  0  0  0  0  0  0  0  0  0  0  0
  -21.0842   17.3019  -31.6138 C   0  0  0  0  0  0  0  0  0  0  0  0
  1  2  1  0
  2  3  2  0
  3  4  1  0
  4  5  1  0
  4  6  1  0
  3  7  1  0
  7  8  2  0
  7  9  1  0
  9 10  1  0
 10 11  2  0
 11 12  1  0
 12 13  2  0
 13 14  1  0
 14 15  2  0
  9 16  1  0
 16 17  1  0
 16  2  1  0
 15 10  1  0
M  END
$$$$
