
     RDKit          3D

 21 22  0  0  0  0  0  0  0  0999 V2000
  -13.7570   44.5578  -19.5421 C   0  0  0  0  0  0  0  0  0  0  0  0
  -14.9650   45.0753  -18.7909 C   0  0  0  0  0  0  0  0  0  0  0  0
  -16.0097   45.2598  -19.7314 O   0  0  0  0  0  0  0  0  0  0  0  0
  -16.7406   44.1828  -20.2245 C   0  0  0  0  0  0  0  0  0  0  0  0
  -16.1369   43.0233  -20.6638 C   0  0  0  0  0  0  0  0  0  0  0  0
  -16.9027   41.9810  -21.1461 C   0  0  0  0  0  0  0  0  0  0  0  0
  -18.2864   42.0534  -21.2091 C   0  0  0  0  0  0  0  0  0  0  0  0
  -19.0027   40.9268  -21.7294 N   0  0  0  0  0  0  0  0  0  0  0  0
  -18.5490   39.5748  -21.5358 C   0  0  0  0  0  0  0  0  0  0  0  0
  -17.4119   39.2887  -20.3731 S   0  0  0  0  0  0  0  0  0  0  0  0
  -19.0755   38.5343  -22.3229 N   0  0  0  0  0  0  0  0  0  0  0  0
  -18.7871   37.1726  -22.0000 C   0  0  0  0  0  0  0  0  0  0  0  0
  -19.8614   36.5218  -21.1653 C   0  0  0  0  0  0  0  0  0  0  0  0
  -20.7863   35.6233  -21.9023 C   0  0  0  0  0  0  0  0  0  0  0  0
  -20.4519   34.2323  -21.8559 N   0  0  0  0  0  0  0  0  0  0  0  0
  -21.3407   33.2150  -21.9471 C   0  0  0  0  0  0  0  0  0  0  0  0
  -20.6619   32.0458  -21.8575 C   0  0  0  0  0  0  0  0  0  0  0  0
  -19.3590   32.3791  -21.7123 N   0  0  0  0  0  0  0  0  0  0  0  0
  -19.2271   33.7295  -21.7111 C   0  0  0  0  0  0  0  0  0  0  0  0
  -18.8821   43.2101  -20.7705 C   0  0  0  0  0  0  0  0  0  0  0  0
  -18.1108   44.2730  -20.2789 C   0  0  0  0  0  0  0  0  0  0  0  0
  1  2  1  0
  2  3  1  0
  3  4  1  0
  4  5  2  0
  5  6  1  0
  6  7  2  0
  7  8  1  0
  8  9  1  0
  9 10  2  0
  9 11  1  0
 11 12  1  0
 12 13  1  0
 13 14  1  0
 14 15  1  0
 15 16  1  0
 16 17  2  0
 17 18  1  0
 18 19  2  0
  7 20  1  0
 20 21  2  0
 21  4  1  0
 19 15  1  0
M  END
$$$$
