
     RDKit          3D

 29 31  0  0  0  0  0  0  0  0999 V2000
  -16.1445   13.7728  -28.9984 Cl  0  0  0  0  0  0  0  0  0  0  0  0
  -18.2260   13.1740  -27.4212 C   0  0  0  0  0  0  0  0  0  0  0  0
  -16.9001   13.2915  -28.0456 N   0  0  0  0  0  0  0  0  0  0  0  0
  -15.7898   12.9968  -27.3939 C   0  0  0  0  0  0  0  0  0  0  0  0
  -15.8016   12.5996  -26.2035 O   0  0  0  0  0  0  0  0  0  0  0  0
  -14.5353   13.1319  -28.0574 C   0  0  0  0  0  0  0  0  0  0  0  0
  -13.4807   12.8202  -27.3433 O   0  0  0  0  0  0  0  0  0  0  0  0
  -12.1769   12.7059  -27.2708 C   0  0  0  0  0  0  0  0  0  0  0  0
  -11.2554   12.9784  -28.2762 C   0  0  0  0  0  0  0  0  0  0  0  0
   -9.8919   12.8322  -28.1208 C   0  0  0  0  0  0  0  0  0  0  0  0
   -9.3815   12.3970  -26.9251 C   0  0  0  0  0  0  0  0  0  0  0  0
   -8.0598   12.2319  -26.7044 F   0  0  0  0  0  0  0  0  0  0  0  0
  -10.2672   12.1196  -25.9126 C   0  0  0  0  0  0  0  0  0  0  0  0
  -11.6167   12.2550  -26.0385 C   0  0  0  0  0  0  0  0  0  0  0  0
  -12.4870   11.9843  -25.0493 F   0  0  0  0  0  0  0  0  0  0  0  0
  -14.5396   13.5740  -29.3786 C   0  0  0  0  0  0  0  0  0  0  0  0
  -15.7148   13.8666  -30.0107 C   0  0  0  0  0  0  0  0  0  0  0  0
  -15.7839   14.3123  -31.3298 C   0  0  0  0  0  0  0  0  0  0  0  0
  -16.9382   14.5969  -31.9426 N   0  0  0  0  0  0  0  0  0  0  0  0
  -18.0884   14.4505  -31.2668 C   0  0  0  0  0  0  0  0  0  0  0  0
  -19.3536   14.7378  -31.8674 N   0  0  0  0  0  0  0  0  0  0  0  0
  -20.5394   14.5516  -31.0591 C   0  0  0  0  0  0  0  0  0  0  0  0
  -21.7893   14.8903  -31.8413 C   0  0  0  0  0  0  0  0  0  0  0  0
  -22.0370   16.3646  -31.6798 C   0  0  0  0  0  0  0  0  0  0  0  0
  -22.3278   16.7496  -30.3951 O   0  0  0  0  0  0  0  0  0  0  0  0
  -21.6888   16.0481  -29.4105 C   0  0  0  0  0  0  0  0  0  0  0  0
  -20.3920   15.4150  -29.8380 C   0  0  0  0  0  0  0  0  0  0  0  0
  -18.0280   14.0227  -29.9994 N   0  0  0  0  0  0  0  0  0  0  0  0
  -16.9076   13.7217  -29.3307 C   0  0  0  0  0  0  0  0  0  0  0  0
  2  3  1  0
  3  4  1  0
  4  5  2  0
  4  6  1  0
  6  7  1  0
  7  8  1  0
  8  9  2  0
  9 10  1  0
 10 11  2  0
 11 12  1  0
 11 13  1  0
 13 14  2  0
 14 15  1  0
  6 16  2  0
 16 17  1  0
 17 18  2  0
 18 19  1  0
 19 20  2  0
 20 21  1  0
 21 22  1  0
 22 23  1  0
 23 24  1  0
 24 25  1  0
 25 26  1  0
 26 27  1  0
 20 28  1  0
 28 29  2  0
 29  3  1  0
 14  8  1  0
 29 17  1  0
 27 22  1  0
M  END
$$$$
