
     RDKit          3D

 21 23  0  0  0  0  0  0  0  0999 V2000
  -21.9610   22.8981  -31.9653 C   0  0  0  0  0  0  0  0  0  0  0  0
  -23.0070   22.2354  -31.1149 C   0  0  0  0  0  0  0  0  0  0  0  0
  -24.2577   21.9009  -31.9125 C   0  0  0  0  0  0  0  0  0  0  0  0
  -22.4932   20.9605  -30.4786 C   0  0  0  0  0  0  0  0  0  0  0  0
  -23.3643   23.1343  -30.0364 N   0  0  0  0  0  0  0  0  0  0  0  0
  -22.7999   24.2991  -29.8280 N   0  0  0  0  0  0  0  0  0  0  0  0
  -23.3649   24.9032  -28.7256 C   0  0  0  0  0  0  0  0  0  0  0  0
  -23.0207   26.1962  -28.1989 C   0  0  0  0  0  0  0  0  0  0  0  0
  -21.8118   26.7729  -28.4389 C   0  0  0  0  0  0  0  0  0  0  0  0
  -21.4787   28.0234  -27.8949 C   0  0  0  0  0  0  0  0  0  0  0  0
  -22.4057   28.6648  -27.1064 C   0  0  0  0  0  0  0  0  0  0  0  0
  -22.0083   30.2429  -26.4091 Cl  0  0  0  0  0  0  0  0  0  0  0  0
  -23.6274   28.1060  -26.8516 C   0  0  0  0  0  0  0  0  0  0  0  0
  -23.9155   26.8641  -27.4111 C   0  0  0  0  0  0  0  0  0  0  0  0
  -24.3166   24.0103  -28.2869 C   0  0  0  0  0  0  0  0  0  0  0  0
  -25.1911   24.1006  -27.2287 C   0  0  0  0  0  0  0  0  0  0  0  0
  -25.2370   25.2375  -26.3843 N   0  0  0  0  0  0  0  0  0  0  0  0
  -26.0374   23.0471  -27.0427 N   0  0  0  0  0  0  0  0  0  0  0  0
  -26.0228   21.9719  -27.8508 C   0  0  0  0  0  0  0  0  0  0  0  0
  -25.1715   21.8767  -28.8894 N   0  0  0  0  0  0  0  0  0  0  0  0
  -24.3120   22.8877  -29.1221 C   0  0  0  0  0  0  0  0  0  0  0  0
  1  2  1  0
  2  3  1  0
  2  4  1  0
  2  5  1  0
  5  6  1  0
  6  7  2  0
  7  8  1  0
  8  9  2  0
  9 10  1  0
 10 11  2  0
 11 12  1  0
 11 13  1  0
 13 14  2  0
  7 15  1  0
 15 16  2  0
 16 17  1  0
 16 18  1  0
 18 19  2  0
 19 20  1  0
 20 21  2  0
 21  5  1  0
 14  8  1  0
 21 15  1  0
M  END
$$$$
