
     RDKit          3D

 14 14  0  0  0  0  0  0  0  0999 V2000
  -16.8757   14.2855  -29.5593 Cl  0  0  0  0  0  0  0  0  0  0  0  0
  -12.7083   11.8883  -27.1738 Cl  0  0  0  0  0  0  0  0  0  0  0  0
  -14.0806   12.7907  -27.7519 C   0  0  0  0  0  0  0  0  0  0  0  0
  -14.2296   13.1674  -29.0842 C   0  0  0  0  0  0  0  0  0  0  0  0
  -15.3144   13.8761  -29.5196 C   0  0  0  0  0  0  0  0  0  0  0  0
  -16.3015   14.2382  -28.6284 C   0  0  0  0  0  0  0  0  0  0  0  0
  -17.4309   14.9569  -28.9948 O   0  0  0  0  0  0  0  0  0  0  0  0
  -17.5504   15.3221  -30.3503 C   0  0  0  0  0  0  0  0  0  0  0  0
  -18.8132   16.0966  -30.6278 C   0  0  1  0  0  0  0  0  0  0  0  0
  -19.1475   15.9854  -32.1150 C   0  0  0  0  0  0  0  0  0  0  0  0
  -20.2293   15.0353  -31.7156 C   0  0  0  0  0  0  0  0  0  0  0  0
  -20.0377   15.4143  -30.3288 N   0  0  0  0  0  0  0  0  0  0  0  0
  -16.1471   13.8594  -27.3008 C   0  0  0  0  0  0  0  0  0  0  0  0
  -15.0704   13.1659  -26.9131 N   0  0  0  0  0  0  0  0  0  0  0  0
  2  3  1  0
  3  4  2  0
  4  5  1  0
  5  6  2  0
  6  7  1  0
  7  8  1  0
  9  8  1  6
  9 10  1  0
 10 11  1  0
 11 12  1  0
  6 13  1  0
 13 14  2  0
 14  3  1  0
 12  9  1  0
M  END
$$$$
