
     RDKit          3D

 26 29  0  0  0  0  0  0  0  0999 V2000
  -21.7769   42.2728  -17.4250 O   0  0  0  0  0  0  0  0  0  0  0  0
  -20.6578   42.1469  -18.0247 C   0  0  0  0  0  0  0  0  0  0  0  0
  -20.5009   41.0870  -18.8943 C   0  0  0  0  0  0  0  0  0  0  0  0
  -19.2724   40.9703  -19.5364 C   0  0  0  0  0  0  0  0  0  0  0  0
  -18.2548   41.8785  -19.3109 C   0  0  0  0  0  0  0  0  0  0  0  0
  -17.0203   41.7889  -19.9352 C   0  0  0  0  0  0  0  0  0  0  0  0
  -16.7867   40.7673  -20.8106 O   0  0  0  0  0  0  0  0  0  0  0  0
  -16.9130   40.8744  -22.2133 C   0  0  0  0  0  0  0  0  0  0  0  0
  -18.2000   40.2943  -22.7201 C   0  0  0  0  0  0  0  0  0  0  0  0
  -18.9377   41.2553  -23.6389 C   0  0  0  0  0  0  0  0  0  0  0  0
  -18.4690   40.9864  -25.0509 C   0  0  0  0  0  0  0  0  0  0  0  0
  -19.2208   41.7281  -25.9969 O   0  0  0  0  0  0  0  0  0  0  0  0
  -18.7780   42.9442  -26.4899 C   0  0  0  0  0  0  0  0  0  0  0  0
  -17.4652   43.3210  -26.3207 C   0  0  0  0  0  0  0  0  0  0  0  0
  -16.9883   44.5207  -26.7961 C   0  0  0  0  0  0  0  0  0  0  0  0
  -17.8580   45.3530  -27.4546 C   0  0  0  0  0  0  0  0  0  0  0  0
  -19.1785   45.0094  -27.6427 C   0  0  0  0  0  0  0  0  0  0  0  0
  -19.6218   43.8019  -27.1542 C   0  0  0  0  0  0  0  0  0  0  0  0
  -16.0140   42.7169  -19.6898 C   0  0  0  0  0  0  0  0  0  0  0  0
  -14.7216   42.8652  -20.1610 C   0  0  0  0  0  0  0  0  0  0  0  0
  -14.2408   43.9915  -19.5291 C   0  0  0  0  0  0  0  0  0  0  0  0
  -15.1586   44.4688  -18.7554 O   0  0  0  0  0  0  0  0  0  0  0  0
  -16.2632   43.7438  -18.8035 C   0  0  0  0  0  0  0  0  0  0  0  0
  -17.4970   43.8203  -18.1893 C   0  0  0  0  0  0  0  0  0  0  0  0
  -18.5071   42.9045  -18.4239 C   0  0  0  0  0  0  0  0  0  0  0  0
  -19.6811   42.9975  -17.8242 O   0  0  0  0  0  0  0  0  0  0  0  0
  1  2  2  0
  2  3  1  0
  3  4  2  0
  4  5  1  0
  5  6  2  0
  6  7  1  0
  7  8  1  0
  8  9  1  0
  9 10  1  0
 10 11  1  0
 11 12  1  0
 12 13  1  0
 13 14  2  0
 14 15  1  0
 15 16  2  0
 16 17  1  0
 17 18  2  0
  6 19  1  0
 19 20  1  0
 20 21  2  0
 21 22  1  0
 22 23  1  0
 23 24  1  0
 24 25  2  0
 25 26  1  0
 26  2  1  0
 25  5  1  0
 18 13  1  0
 23 19  2  0
M  END
$$$$
