
     RDKit          3D

 21 24  0  0  0  0  0  0  0  0999 V2000
  -19.1624   40.3624  -17.1217 O   0  0  0  0  0  0  0  0  0  0  0  0
  -19.5216   40.1658  -18.2882 C   0  0  0  0  0  0  0  0  0  0  0  0
  -20.4757   39.1388  -18.6621 N   0  0  0  0  0  0  0  0  0  0  0  0
  -20.6687   39.1766  -20.0625 C   0  0  0  0  0  0  0  0  0  0  0  0
  -21.5054   38.3559  -20.8221 C   0  0  0  0  0  0  0  0  0  0  0  0
  -21.5522   38.5516  -22.1680 C   0  0  0  0  0  0  0  0  0  0  0  0
  -20.7839   39.5394  -22.7347 C   0  0  0  0  0  0  0  0  0  0  0  0
  -19.9439   40.3650  -21.9816 C   0  0  0  0  0  0  0  0  0  0  0  0
  -19.8970   40.1684  -20.6301 C   0  0  0  0  0  0  0  0  0  0  0  0
  -19.1560   40.8164  -19.5322 C   0  0  0  0  0  0  0  0  0  0  0  0
  -18.2860   41.8331  -19.6237 C   0  0  0  0  0  0  0  0  0  0  0  0
  -17.9225   42.7064  -18.5702 N   0  0  0  0  0  0  0  0  0  0  0  0
  -16.9591   43.6608  -19.0887 C   0  0  0  0  0  0  0  0  0  0  0  0
  -16.2981   44.7095  -18.4856 C   0  0  0  0  0  0  0  0  0  0  0  0
  -15.4182   45.4640  -19.2442 C   0  0  0  0  0  0  0  0  0  0  0  0
  -15.1776   45.2122  -20.5663 C   0  0  0  0  0  0  0  0  0  0  0  0
  -15.8468   44.1543  -21.1672 C   0  0  0  0  0  0  0  0  0  0  0  0
  -16.7316   43.3928  -20.4114 C   0  0  0  0  0  0  0  0  0  0  0  0
  -17.5348   42.2490  -20.8266 C   0  0  0  0  0  0  0  0  0  0  0  0
  -17.5850   41.7176  -21.9715 N   0  0  0  0  0  0  0  0  0  0  0  0
  -16.8913   42.1806  -23.0231 O   0  0  0  0  0  0  0  0  0  0  0  0
  1  2  2  0
  2  3  1  0
  3  4  1  0
  4  5  2  0
  5  6  1  0
  6  7  2  0
  7  8  1  0
  8  9  2  0
  9 10  1  0
 10 11  2  0
 11 12  1  0
 12 13  1  0
 13 14  2  0
 14 15  1  0
 15 16  2  0
 16 17  1  0
 17 18  2  0
 18 19  1  0
 19 20  2  0
 20 21  1  0
 10  2  1  0
 19 11  1  0
  9  4  1  0
 18 13  1  0
M  END
$$$$
