
     RDKit          3D

 38 42  0  0  0  0  0  0  0  0999 V2000
  -28.3075   28.0497  -29.4792 C   0  0  0  0  0  0  0  0  0  0  0  0
  -26.9484   28.3345  -29.5202 O   0  0  0  0  0  0  0  0  0  0  0  0
  -25.9714   28.0057  -28.6474 C   0  0  0  0  0  0  0  0  0  0  0  0
  -25.4074   26.7531  -28.6235 C   0  0  0  0  0  0  0  0  0  0  0  0
  -24.4126   26.3890  -27.7469 C   0  0  0  0  0  0  0  0  0  0  0  0
  -23.8689   25.1241  -27.7505 C   0  0  0  0  0  0  0  0  0  0  0  0
  -24.2891   24.1386  -28.6608 N   0  0  0  0  0  0  0  0  0  0  0  0
  -23.7230   22.8282  -28.7424 C   0  0  0  0  0  0  0  0  0  0  0  0
  -22.9130   22.5072  -29.8449 C   0  0  0  0  0  0  0  0  0  0  0  0
  -22.3530   21.2647  -29.9949 C   0  0  0  0  0  0  0  0  0  0  0  0
  -22.5582   20.2616  -29.0648 C   0  0  0  0  0  0  0  0  0  0  0  0
  -21.9547   18.9769  -29.2635 N   0  0  0  0  0  0  0  0  0  0  0  0
  -20.6099   18.8722  -29.7023 C   0  0  0  0  0  0  0  0  0  0  0  0
  -20.0158   19.9540  -30.0002 O   0  0  0  0  0  0  0  0  0  0  0  0
  -19.8992   17.6097  -29.8229 C   0  0  0  0  0  0  0  0  0  0  0  0
  -18.5207   17.5848  -29.6296 C   0  0  0  0  0  0  0  0  0  0  0  0
  -17.7955   16.4163  -29.7349 C   0  0  0  0  0  0  0  0  0  0  0  0
  -18.4361   15.2347  -30.0382 C   0  0  0  0  0  0  0  0  0  0  0  0
  -19.8077   15.2507  -30.2320 C   0  0  0  0  0  0  0  0  0  0  0  0
  -20.5197   16.4347  -30.1221 C   0  0  0  0  0  0  0  0  0  0  0  0
  -23.3474   20.5595  -27.9814 C   0  0  0  0  0  0  0  0  0  0  0  0
  -23.9233   21.8319  -27.8252 C   0  0  0  0  0  0  0  0  0  0  0  0
  -22.9107   24.8788  -26.8606 N   0  0  0  0  0  0  0  0  0  0  0  0
  -22.4774   25.8203  -25.9827 C   0  0  0  0  0  0  0  0  0  0  0  0
  -22.9922   27.0496  -25.9648 N   0  0  0  0  0  0  0  0  0  0  0  0
  -23.9593   27.3567  -26.8362 C   0  0  0  0  0  0  0  0  0  0  0  0
  -24.5179   28.6362  -26.8434 C   0  0  0  0  0  0  0  0  0  0  0  0
  -25.5131   28.9682  -27.7329 C   0  0  0  0  0  0  0  0  0  0  0  0
  -26.1144   30.1826  -27.8032 O   0  0  0  0  0  0  0  0  0  0  0  0
  -25.6668   31.3293  -28.3992 C   0  0  0  0  0  0  0  0  0  0  0  0
  -25.0068   32.2748  -27.4178 C   0  0  0  0  0  0  0  0  0  0  0  0
  -25.0366   33.6938  -27.9900 C   0  0  0  0  0  0  0  0  0  0  0  0
  -26.0815   34.4485  -27.3786 N   0  0  0  0  0  0  0  0  0  0  0  0
  -25.5514   35.6172  -26.6688 C   0  0  0  0  0  0  0  0  0  0  0  0
  -25.6780   36.8574  -27.5301 C   0  0  0  0  0  0  0  0  0  0  0  0
  -25.4421   36.4516  -28.8439 O   0  0  0  0  0  0  0  0  0  0  0  0
  -26.6391   35.8606  -29.2996 C   0  0  0  0  0  0  0  0  0  0  0  0
  -27.1318   34.8720  -28.2915 C   0  0  0  0  0  0  0  0  0  0  0  0
  1  2  1  0
  2  3  1  0
  3  4  2  0
  4  5  1  0
  5  6  2  0
  6  7  1  0
  7  8  1  0
  8  9  2  0
  9 10  1  0
 10 11  2  0
 11 12  1  0
 12 13  1  0
 13 14  2  0
 13 15  1  0
 15 16  2  0
 16 17  1  0
 17 18  2  0
 18 19  1  0
 19 20  2  0
 11 21  1  0
 21 22  2  0
  6 23  1  0
 23 24  2  0
 24 25  1  0
 25 26  2  0
 26 27  1  0
 27 28  2  0
 28 29  1  0
 29 30  1  0
 30 31  1  0
 31 32  1  0
 32 33  1  0
 33 34  1  0
 34 35  1  0
 35 36  1  0
 36 37  1  0
 37 38  1  0
 28  3  1  0
 38 33  1  0
 26  5  1  0
 22  8  1  0
 20 15  1  0
M  END
$$$$
