
     RDKit          3D

 14 15  0  0  0  0  0  0  0  0999 V2000
  -18.7384   40.5365  -19.5940 O   0  0  0  0  0  0  0  0  0  0  0  0
  -18.8056   39.6082  -20.4446 C   0  0  0  0  0  0  0  0  0  0  0  0
  -18.5396   38.2248  -20.2624 N   0  0  0  0  0  0  0  0  0  0  0  0
  -18.7286   37.4902  -21.4733 C   0  0  0  0  0  0  0  0  0  0  0  0
  -19.1141   38.4210  -22.4131 C   0  0  0  0  0  0  0  0  0  0  0  0
  -19.3664   37.9567  -23.7039 C   0  0  0  0  0  0  0  0  0  0  0  0
  -19.2314   36.6235  -24.0091 C   0  0  0  0  0  0  0  0  0  0  0  0
  -18.8459   35.6913  -23.0700 C   0  0  0  0  0  0  0  0  0  0  0  0
  -18.6820   33.9831  -23.4969 Cl  0  0  0  0  0  0  0  0  0  0  0  0
  -18.5938   36.1378  -21.7912 C   0  0  0  0  0  0  0  0  0  0  0  0
  -18.1000   35.0062  -20.5488 Cl  0  0  0  0  0  0  0  0  0  0  0  0
  -19.1832   39.7626  -21.8417 C   0  0  0  0  0  0  0  0  0  0  0  0
  -19.5089   40.8713  -22.4332 N   0  0  0  0  0  0  0  0  0  0  0  0
  -19.9289   40.8481  -23.7632 O   0  0  0  0  0  0  0  0  0  0  0  0
  1  2  2  0
  2  3  1  0
  3  4  1  0
  4  5  2  0
  5  6  1  0
  6  7  2  0
  7  8  1  0
  8  9  1  0
  8 10  2  0
 10 11  1  0
  5 12  1  0
 12 13  2  0
 13 14  1  0
 12  2  1  0
 10  4  1  0
M  END
$$$$
