
     RDKit          3D

 17 19  0  0  0  0  0  0  0  0999 V2000
  -21.8956   13.2263  -30.5552 C   0  0  0  0  0  0  0  0  0  0  0  0
  -20.9179   14.2825  -30.1916 C   0  0  0  0  0  0  0  0  0  0  0  0
  -19.5803   13.9646  -30.1139 C   0  0  0  0  0  0  0  0  0  0  0  0
  -18.6440   14.9356  -29.7753 C   0  0  0  0  0  0  0  0  0  0  0  0
  -17.2271   14.6074  -29.6909 C   0  0  0  0  0  0  0  0  0  0  0  0
  -16.2506   15.3091  -29.1042 N   0  0  0  0  0  0  0  0  0  0  0  0
  -15.1093   14.6561  -29.2576 C   0  0  0  0  0  0  0  0  0  0  0  0
  -13.8365   14.9440  -28.8499 N   0  0  0  0  0  0  0  0  0  0  0  0
  -12.8107   14.1268  -29.1190 C   0  0  0  0  0  0  0  0  0  0  0  0
  -13.0801   12.9720  -29.8283 C   0  0  0  0  0  0  0  0  0  0  0  0
  -14.3516   12.6559  -30.2518 C   0  0  0  0  0  0  0  0  0  0  0  0
  -15.3977   13.5053  -29.9683 C   0  0  0  0  0  0  0  0  0  0  0  0
  -16.6767   13.5389  -30.1941 O   0  0  0  0  0  0  0  0  0  0  0  0
  -19.1298   16.2013  -29.5296 C   0  0  0  0  0  0  0  0  0  0  0  0
  -20.4632   16.5230  -29.6059 C   0  0  0  0  0  0  0  0  0  0  0  0
  -21.3926   15.5522  -29.9437 C   0  0  0  0  0  0  0  0  0  0  0  0
  -22.7785   15.8236  -30.0380 N   0  0  0  0  0  0  0  0  0  0  0  0
  1  2  1  0
  2  3  2  0
  3  4  1  0
  4  5  1  0
  5  6  2  0
  6  7  1  0
  7  8  2  0
  8  9  1  0
  9 10  2  0
 10 11  1  0
 11 12  2  0
 12 13  1  0
  4 14  2  0
 14 15  1  0
 15 16  2  0
 16 17  1  0
 16  2  1  0
 13  5  1  0
 12  7  1  0
M  END
$$$$
