
     RDKit          3D

 40 43  0  0  0  0  0  0  0  0999 V2000
  -19.1037   35.1301  -21.6044 O   0  0  0  0  0  0  0  0  0  0  0  0
  -20.2618   35.0638  -22.1141 C   0  0  0  0  0  0  0  0  0  0  0  0
  -20.7235   33.8550  -22.8077 C   0  0  0  0  0  0  0  0  0  0  0  0
  -20.2617   32.6674  -22.0155 C   0  0  0  0  0  0  0  0  0  0  0  0
  -19.3006   31.8289  -22.5138 C   0  0  0  0  0  0  0  0  0  0  0  0
  -18.8811   30.7533  -21.7784 C   0  0  0  0  0  0  0  0  0  0  0  0
  -19.4205   30.5123  -20.5443 C   0  0  0  0  0  0  0  0  0  0  0  0
  -20.3949   31.3665  -20.0449 C   0  0  0  0  0  0  0  0  0  0  0  0
  -20.9680   31.1594  -18.7976 O   0  0  0  0  0  0  0  0  0  0  0  0
  -21.9631   30.2246  -18.5154 C   0  0  0  0  0  0  0  0  0  0  0  0
  -23.1317   30.6811  -19.1257 F   0  0  0  0  0  0  0  0  0  0  0  0
  -22.1703   30.1832  -17.1542 F   0  0  0  0  0  0  0  0  0  0  0  0
  -21.6972   28.9706  -19.0240 F   0  0  0  0  0  0  0  0  0  0  0  0
  -20.8204   32.4513  -20.7820 C   0  0  0  0  0  0  0  0  0  0  0  0
  -21.0995   36.1998  -21.9914 N   0  0  0  0  0  0  0  0  0  0  0  0
  -20.5170   37.4335  -21.5713 C   0  0  0  0  0  0  0  0  0  0  0  0
  -19.1936   37.4662  -21.1934 C   0  0  0  0  0  0  0  0  0  0  0  0
  -18.6026   38.6587  -20.7852 C   0  0  0  0  0  0  0  0  0  0  0  0
  -19.3646   39.7806  -20.7702 C   0  0  0  0  0  0  0  0  0  0  0  0
  -18.9176   41.1097  -20.4228 C   0  0  0  0  0  0  0  0  0  0  0  0
  -17.7779   41.7158  -21.1372 C   0  0  0  0  0  0  0  0  0  0  0  0
  -18.0839   42.5950  -22.2945 C   0  0  0  0  0  0  0  0  0  0  0  0
  -17.0420   43.6277  -22.6206 C   0  0  0  0  0  0  0  0  0  0  0  0
  -17.3183   44.9848  -22.0292 C   0  0  0  0  0  0  0  0  0  0  0  0
  -17.8396   46.0172  -22.3729 N   0  0  0  0  0  0  0  0  0  0  0  0
  -17.9669   47.0382  -21.5932 N   0  0  0  0  0  0  0  0  0  0  0  0
  -17.6220   47.1380  -20.4884 C   0  0  0  0  0  0  0  0  0  0  0  0
  -17.5461   47.9968  -19.3086 N   0  0  0  0  0  0  0  0  0  0  0  0
  -16.5005   47.7930  -18.3446 C   0  0  0  0  0  0  0  0  0  0  0  0
  -15.7124   46.8518  -18.5495 O   0  0  0  0  0  0  0  0  0  0  0  0
  -16.4629   48.7226  -17.2036 C   0  0  0  0  0  0  0  0  0  0  0  0
  -15.1489   49.3404  -16.9981 C   0  0  0  0  0  0  0  0  0  0  0  0
  -14.1287   48.7553  -16.2651 C   0  0  0  0  0  0  0  0  0  0  0  0
  -12.9018   49.3535  -16.0886 C   0  0  0  0  0  0  0  0  0  0  0  0
  -12.6837   50.5872  -16.6663 C   0  0  0  0  0  0  0  0  0  0  0  0
  -13.6961   51.1604  -17.3892 C   0  0  0  0  0  0  0  0  0  0  0  0
  -14.8925   50.5413  -17.5427 N   0  0  0  0  0  0  0  0  0  0  0  0
  -16.8639   45.3915  -20.2629 S   0  0  0  0  0  0  0  0  0  0  0  0
  -20.6794   39.6844  -21.1592 N   0  0  0  0  0  0  0  0  0  0  0  0
  -21.2222   38.5615  -21.5399 N   0  0  0  0  0  0  0  0  0  0  0  0
  1  2  2  0
  2  3  1  0
  3  4  1  0
  4  5  2  0
  5  6  1  0
  6  7  2  0
  7  8  1  0
  8  9  1  0
  9 10  1  0
 10 11  1  0
 10 12  1  0
 10 13  1  0
  8 14  2  0
  2 15  1  0
 15 16  1  0
 16 17  2  0
 17 18  1  0
 18 19  2  0
 19 20  1  0
 20 21  1  0
 21 22  1  0
 22 23  1  0
 23 24  1  0
 24 25  2  0
 25 26  1  0
 26 27  2  0
 27 28  1  0
 28 29  1  0
 29 30  2  0
 29 31  1  0
 31 32  1  0
 32 33  2  0
 33 34  1  0
 34 35  2  0
 35 36  1  0
 36 37  2  0
 27 38  1  0
 19 39  1  0
 39 40  2  0
 14  4  1  0
 40 16  1  0
 38 24  1  0
 37 32  1  0
M  END
$$$$
