
     RDKit          3D

 24 25  0  0  0  0  0  0  0  0999 V2000
  -44.0742    6.9897  -35.2465 Cl  0  0  0  0  0  0  0  0  0  0  0  0
  -45.0730    7.3932  -34.2855 O   0  0  0  0  0  0  0  0  0  0  0  0
  -44.4050    8.2893  -34.8536 C   0  0  0  0  0  0  0  0  0  0  0  0
  -43.8385    8.0953  -36.0981 O   0  0  0  0  0  0  0  0  0  0  0  0
  -43.9768    6.8892  -36.7904 C   0  0  0  0  0  0  0  0  0  0  0  0
  -43.3943    5.7061  -36.0336 C   0  0  0  0  0  0  0  0  0  0  0  0
  -43.6145    4.5355  -36.8858 N   0  0  0  0  0  0  0  0  0  0  0  0
  -45.0388    4.2487  -36.9580 C   0  0  0  0  0  0  0  0  0  0  0  0
  -45.2231    2.7918  -37.3330 C   0  0  0  0  0  0  0  0  0  0  0  0
  -44.7725    1.9535  -36.3168 O   0  0  0  0  0  0  0  0  0  0  0  0
  -43.7821    2.5560  -35.5469 C   0  0  0  0  0  0  0  0  0  0  0  0
  -42.8622    3.3865  -36.4121 C   0  0  0  0  0  0  0  0  0  0  0  0
  -44.2272    9.5986  -34.1473 C   0  0  0  0  0  0  0  0  0  0  0  0
  -42.7714    9.7916  -33.9519 C   0  0  0  0  0  0  0  0  0  0  0  0
  -42.0125    8.7094  -33.4779 C   0  0  0  0  0  0  0  0  0  0  0  0
  -40.6568    8.8464  -33.2849 C   0  0  0  0  0  0  0  0  0  0  0  0
  -40.0049   10.0372  -33.5474 C   0  0  0  0  0  0  0  0  0  0  0  0
  -40.7537   11.0976  -34.0126 C   0  0  0  0  0  0  0  0  0  0  0  0
  -42.1234   10.9745  -34.2126 C   0  0  0  0  0  0  0  0  0  0  0  0
  -44.8175   10.6886  -34.9794 C   0  0  0  0  0  0  0  0  0  0  0  0
  -46.3213   10.5359  -35.1339 C   0  0  0  0  0  0  0  0  0  0  0  0
  -46.9701   10.1991  -33.8056 C   0  0  0  0  0  0  0  0  0  0  0  0
  -46.0238   10.4815  -32.6433 C   0  0  0  0  0  0  0  0  0  0  0  0
  -44.8684    9.5055  -32.7797 C   0  0  0  0  0  0  0  0  0  0  0  0
  2  3  2  0
  3  4  1  0
  4  5  1  0
  5  6  1  0
  6  7  1  0
  7  8  1  0
  8  9  1  0
  9 10  1  0
 10 11  1  0
 11 12  1  0
  3 13  1  0
 13 14  1  0
 14 15  2  0
 15 16  1  0
 16 17  2  0
 17 18  1  0
 18 19  2  0
 13 20  1  0
 20 21  1  0
 21 22  1  0
 22 23  1  0
 23 24  1  0
 12  7  1  0
 24 13  1  0
 19 14  1  0
M  END
$$$$
