
     RDKit          3D

 30 33  0  0  0  0  0  0  0  0999 V2000
  -18.2862   18.5431  -37.1031 O   0  0  0  0  0  0  0  0  0  0  0  0
  -17.4917   18.5079  -38.0878 C   0  0  0  0  0  0  0  0  0  0  0  0
  -16.1349   18.1236  -37.7737 C   0  0  0  0  0  0  0  0  0  0  0  0
  -15.0975   18.7695  -38.4562 C   0  0  0  0  0  0  0  0  0  0  0  0
  -13.7694   18.4100  -38.2857 C   0  0  0  0  0  0  0  0  0  0  0  0
  -13.4226   17.3940  -37.4309 C   0  0  0  0  0  0  0  0  0  0  0  0
  -12.1050   17.0566  -37.2807 F   0  0  0  0  0  0  0  0  0  0  0  0
  -14.4245   16.7536  -36.7565 C   0  0  0  0  0  0  0  0  0  0  0  0
  -14.0471   15.7324  -35.9557 F   0  0  0  0  0  0  0  0  0  0  0  0
  -15.7810   17.1140  -36.9206 C   0  0  0  0  0  0  0  0  0  0  0  0
  -16.7297   16.4069  -36.1355 N   0  0  0  0  0  0  0  0  0  0  0  0
  -16.6791   16.1612  -34.7488 C   0  0  0  0  0  0  0  0  0  0  0  0
  -15.7755   16.8397  -33.9485 C   0  0  0  0  0  0  0  0  0  0  0  0
  -15.6458   16.6344  -32.5915 C   0  0  0  0  0  0  0  0  0  0  0  0
  -16.4373   15.7140  -31.9508 C   0  0  0  0  0  0  0  0  0  0  0  0
  -16.2576   15.3789  -29.8617 I   0  0  0  0  0  0  0  0  0  0  0  0
  -17.3449   15.0213  -32.7069 C   0  0  0  0  0  0  0  0  0  0  0  0
  -17.4675   15.2389  -34.0890 C   0  0  0  0  0  0  0  0  0  0  0  0
  -18.3645   14.5231  -34.7831 F   0  0  0  0  0  0  0  0  0  0  0  0
  -17.9726   18.8355  -39.3670 N   0  0  0  0  0  0  0  0  0  0  0  0
  -19.3406   19.2400  -39.7731 C   0  0  0  0  0  0  0  0  0  0  0  0
  -18.8984   19.6569  -41.1138 C   0  0  0  0  0  0  0  0  0  0  0  0
  -19.6285   19.0644  -42.1224 O   0  0  0  0  0  0  0  0  0  0  0  0
  -18.7713   21.1569  -41.3482 C   0  0  0  0  0  0  0  0  0  0  0  0
  -19.9951   21.6146  -42.0664 C   0  0  0  0  0  0  0  0  0  0  0  0
  -20.5081   22.9500  -41.7051 C   0  0  0  0  0  0  0  0  0  0  0  0
  -20.2092   23.4186  -40.3275 C   0  0  0  0  0  0  0  0  0  0  0  0
  -19.7470   22.2602  -39.4690 C   0  0  0  0  0  0  0  0  0  0  0  0
  -18.5269   21.7749  -40.0926 N   0  0  0  0  0  0  0  0  0  0  0  0
  -17.5964   18.9804  -40.7461 C   0  0  0  0  0  0  0  0  0  0  0  0
  1  2  2  0
  2  3  1  0
  3  4  2  0
  4  5  1  0
  5  6  2  0
  6  7  1  0
  6  8  1  0
  8  9  1  0
  8 10  2  0
 10 11  1  0
 11 12  1  0
 12 13  2  0
 13 14  1  0
 14 15  2  0
 15 16  1  0
 15 17  1  0
 17 18  2  0
 18 19  1  0
  2 20  1  0
 20 21  1  0
 21 22  1  0
 22 23  1  0
 22 24  1  0
 24 25  1  0
 25 26  1  0
 26 27  1  0
 27 28  1  0
 28 29  1  0
 22 30  1  0
 10  3  1  0
 18 12  1  0
 30 20  1  0
 29 24  1  0
M  END
$$$$
