
     RDKit          3D

 19 20  0  0  0  0  0  0  0  0999 V2000
  -14.9374   18.5673  -40.5511 O   0  0  0  0  0  0  0  0  0  0  0  0
  -14.5619   18.2154  -39.4302 C   0  0  0  0  0  0  0  0  0  0  0  0
  -15.5020   18.1390  -38.3923 N   0  0  0  0  0  0  0  0  0  0  0  0
  -16.8616   18.5100  -38.4648 C   0  0  0  0  0  0  0  0  0  0  0  0
  -17.7408   18.6403  -37.4275 C   0  0  0  0  0  0  0  0  0  0  0  0
  -19.0812   19.0176  -37.6139 C   0  0  0  0  0  0  0  0  0  0  0  0
  -19.5815   19.2781  -38.8661 C   0  0  0  0  0  0  0  0  0  0  0  0
  -21.2563   19.7486  -39.0894 Cl  0  0  0  0  0  0  0  0  0  0  0  0
  -18.7120   19.1524  -39.9234 C   0  0  0  0  0  0  0  0  0  0  0  0
  -17.4022   18.7827  -39.7319 C   0  0  0  0  0  0  0  0  0  0  0  0
  -13.1779   17.8994  -39.2374 N   0  0  0  0  0  0  0  0  0  0  0  0
  -12.1482   18.0612  -40.1967 C   0  0  0  0  0  0  0  0  0  0  0  0
  -10.8092   18.0568  -39.9576 C   0  0  0  0  0  0  0  0  0  0  0  0
   -9.9293   18.2320  -41.0332 C   0  0  0  0  0  0  0  0  0  0  0  0
  -10.3735   18.4074  -42.3167 C   0  0  0  0  0  0  0  0  0  0  0  0
   -9.2869   18.6270  -43.6668 Cl  0  0  0  0  0  0  0  0  0  0  0  0
  -11.7373   18.4127  -42.5655 C   0  0  0  0  0  0  0  0  0  0  0  0
  -12.3361   18.6366  -44.2082 Cl  0  0  0  0  0  0  0  0  0  0  0  0
  -12.5911   18.2413  -41.5126 C   0  0  0  0  0  0  0  0  0  0  0  0
  1  2  2  0
  2  3  1  0
  3  4  1  0
  4  5  2  0
  5  6  1  0
  6  7  2  0
  7  8  1  0
  7  9  1  0
  9 10  2  0
  2 11  1  0
 11 12  1  0
 12 13  2  0
 13 14  1  0
 14 15  2  0
 15 16  1  0
 15 17  1  0
 17 18  1  0
 17 19  2  0
 10  4  1  0
 19 12  1  0
M  END
$$$$
