
     RDKit          3D

 29 32  0  0  0  0  0  0  0  0999 V2000
  -21.2638   40.2232  -25.7341 C   0  0  0  0  0  0  0  0  0  0  0  0
  -21.0320   38.9732  -25.0076 N   0  0  0  0  0  0  0  0  0  0  0  0
  -20.1642   38.8969  -23.9841 C   0  0  0  0  0  0  0  0  0  0  0  0
  -19.5244   39.9165  -23.6261 O   0  0  0  0  0  0  0  0  0  0  0  0
  -19.9454   37.7316  -23.3037 C   0  0  0  0  0  0  0  0  0  0  0  0
  -20.6763   36.6185  -23.7318 C   0  0  0  0  0  0  0  0  0  0  0  0
  -20.3062   35.6053  -22.9339 N   0  0  0  0  0  0  0  0  0  0  0  0
  -19.3881   36.0883  -22.0589 C   0  0  0  0  0  0  0  0  0  0  0  0
  -19.1630   37.3718  -22.2738 N   0  0  0  0  0  0  0  0  0  0  0  0
  -18.2755   38.2544  -21.5812 C   0  0  0  0  0  0  0  0  0  0  0  0
  -19.0645   39.0622  -20.5657 C   0  0  0  0  0  0  0  0  0  0  0  0
  -20.3033   39.1614  -20.6623 O   0  0  0  0  0  0  0  0  0  0  0  0
  -18.3766   39.6960  -19.5155 N   0  0  0  0  0  0  0  0  0  0  0  0
  -17.8083   40.9783  -19.5879 C   0  0  0  0  0  0  0  0  0  0  0  0
  -18.1049   41.9941  -20.4376 C   0  0  0  0  0  0  0  0  0  0  0  0
  -17.4711   43.2433  -20.4231 C   0  0  0  0  0  0  0  0  0  0  0  0
  -16.4935   43.4596  -19.4997 C   0  0  0  0  0  0  0  0  0  0  0  0
  -15.7900   44.7255  -19.4199 C   0  0  0  0  0  0  0  0  0  0  0  0
  -14.7425   44.8465  -18.5212 C   0  0  0  0  0  0  0  0  0  0  0  0
  -14.0353   46.0317  -18.4024 C   0  0  0  0  0  0  0  0  0  0  0  0
  -14.3650   47.1179  -19.1825 C   0  0  0  0  0  0  0  0  0  0  0  0
  -15.3988   47.0050  -20.0723 C   0  0  0  0  0  0  0  0  0  0  0  0
  -16.1091   45.8085  -20.1889 C   0  0  0  0  0  0  0  0  0  0  0  0
  -16.2039   42.4417  -18.6562 N   0  0  0  0  0  0  0  0  0  0  0  0
  -16.8151   41.2791  -18.6924 N   0  0  0  0  0  0  0  0  0  0  0  0
  -21.5454   36.6834  -24.7524 N   0  0  0  0  0  0  0  0  0  0  0  0
  -22.2824   35.4980  -25.1609 C   0  0  0  0  0  0  0  0  0  0  0  0
  -21.6969   37.8663  -25.3622 C   0  0  0  0  0  0  0  0  0  0  0  0
  -22.5290   37.8969  -26.3277 O   0  0  0  0  0  0  0  0  0  0  0  0
  1  2  1  0
  2  3  1  0
  3  4  2  0
  3  5  1  0
  5  6  2  0
  6  7  1  0
  7  8  2  0
  8  9  1  0
  9 10  1  0
 10 11  1  0
 11 12  2  0
 11 13  1  0
 13 14  1  0
 14 15  2  0
 15 16  1  0
 16 17  2  0
 17 18  1  0
 18 19  2  0
 19 20  1  0
 20 21  2  0
 21 22  1  0
 22 23  2  0
 17 24  1  0
 24 25  2  0
  6 26  1  0
 26 27  1  0
 26 28  1  0
 28 29  2  0
 28  2  1  0
  9  5  1  0
 25 14  1  0
 23 18  1  0
M  END
$$$$
