
     RDKit          3D

 32 35  0  0  0  0  0  0  0  0999 V2000
  -20.3888   40.6687  -18.5561 O   0  0  0  0  0  0  0  0  0  0  0  0
  -19.5958   40.8546  -19.5336 C   0  0  0  0  0  0  0  0  0  0  0  0
  -19.4949   39.7830  -20.4210 O   0  0  0  0  0  0  0  0  0  0  0  0
  -20.1772   39.6944  -21.6299 C   0  0  2  0  0  0  0  0  0  0  0  0
  -21.5510   39.1609  -21.4090 C   0  0  0  0  0  0  0  0  0  0  0  0
  -22.2206   38.6234  -22.6017 C   0  0  0  0  0  0  0  0  0  0  0  0
  -23.4890   38.1222  -22.4629 C   0  0  0  0  0  0  0  0  0  0  0  0
  -24.1615   38.1019  -21.2486 O   0  0  0  0  0  0  0  0  0  0  0  0
  -24.1223   37.6119  -23.6018 C   0  0  0  0  0  0  0  0  0  0  0  0
  -23.4999   37.6077  -24.8325 C   0  0  0  0  0  0  0  0  0  0  0  0
  -24.1769   37.0861  -25.9388 O   0  0  0  0  0  0  0  0  0  0  0  0
  -22.2267   38.1156  -24.9493 C   0  0  0  0  0  0  0  0  0  0  0  0
  -21.5862   38.6282  -23.8138 C   0  0  0  0  0  0  0  0  0  0  0  0
  -20.3039   39.1474  -23.8958 O   0  0  0  0  0  0  0  0  0  0  0  0
  -19.4404   39.0316  -22.7478 C   0  0  2  0  0  0  0  0  0  0  0  0
  -19.0760   37.6364  -22.5587 C   0  0  0  0  0  0  0  0  0  0  0  0
  -20.0721   36.7075  -22.3458 C   0  0  0  0  0  0  0  0  0  0  0  0
  -19.8013   35.3615  -22.1568 C   0  0  0  0  0  0  0  0  0  0  0  0
  -18.4958   34.9099  -22.1780 C   0  0  0  0  0  0  0  0  0  0  0  0
  -18.2299   33.5454  -21.9859 O   0  0  0  0  0  0  0  0  0  0  0  0
  -17.4894   35.8212  -22.3889 C   0  0  0  0  0  0  0  0  0  0  0  0
  -16.1834   35.3582  -22.4084 O   0  0  0  0  0  0  0  0  0  0  0  0
  -17.7848   37.1763  -22.5776 C   0  0  0  0  0  0  0  0  0  0  0  0
  -18.8593   42.0858  -19.7041 C   0  0  0  0  0  0  0  0  0  0  0  0
  -17.7738   42.3519  -18.9120 C   0  0  0  0  0  0  0  0  0  0  0  0
  -17.0391   43.5313  -19.0493 C   0  0  0  0  0  0  0  0  0  0  0  0
  -15.9390   43.8098  -18.2524 O   0  0  0  0  0  0  0  0  0  0  0  0
  -17.4462   44.4214  -20.0134 C   0  0  0  0  0  0  0  0  0  0  0  0
  -16.7472   45.6037  -20.1845 O   0  0  0  0  0  0  0  0  0  0  0  0
  -18.5378   44.1914  -20.8352 C   0  0  0  0  0  0  0  0  0  0  0  0
  -18.9098   45.1220  -21.7952 O   0  0  0  0  0  0  0  0  0  0  0  0
  -19.2420   42.9920  -20.6572 C   0  0  0  0  0  0  0  0  0  0  0  0
  1  2  2  0
  2  3  1  0
  4  3  1  1
  4  5  1  0
  5  6  1  0
  6  7  2  0
  7  8  1  0
  7  9  1  0
  9 10  2  0
 10 11  1  0
 10 12  1  0
 12 13  2  0
 13 14  1  0
 14 15  1  0
 15 16  1  1
 16 17  2  0
 17 18  1  0
 18 19  2  0
 19 20  1  0
 19 21  1  0
 21 22  1  0
 21 23  2  0
  2 24  1  0
 24 25  2  0
 25 26  1  0
 26 27  1  0
 26 28  2  0
 28 29  1  0
 28 30  1  0
 30 31  1  0
 30 32  2  0
 15  4  1  0
 23 16  1  0
 32 24  1  0
 13  6  1  0
M  END
$$$$
