
     RDKit          3D

 32 35  0  0  0  0  0  0  0  0999 V2000
  -25.1653   16.9758  -39.9204 C   0  0  0  0  0  0  0  0  0  0  0  0
  -24.9573   17.0349  -38.6316 C   0  0  0  0  0  0  0  0  0  0  0  0
  -23.8740   17.5210  -37.8703 C   0  0  0  0  0  0  0  0  0  0  0  0
  -23.5186   16.7367  -36.8697 O   0  0  0  0  0  0  0  0  0  0  0  0
  -23.1244   18.6547  -37.9741 N   0  0  0  0  0  0  0  0  0  0  0  0
  -23.5745   20.0069  -37.7775 C   0  0  0  0  0  0  0  0  0  0  0  0
  -23.2205   20.3202  -36.3185 C   0  0  0  0  0  0  0  0  0  0  0  0
  -21.8954   19.5926  -36.0039 C   0  0  0  0  0  0  0  0  0  0  0  0
  -21.0556   19.5349  -37.2598 C   0  0  1  0  0  0  0  0  0  0  0  0
  -19.6966   19.1335  -36.8787 N   0  0  0  0  0  0  0  0  0  0  0  0
  -19.2964   18.5355  -35.7910 N   0  0  0  0  0  0  0  0  0  0  0  0
  -17.9594   18.3275  -35.7945 C   0  0  0  0  0  0  0  0  0  0  0  0
  -17.1730   17.6708  -34.7505 C   0  0  0  0  0  0  0  0  0  0  0  0
  -16.4172   18.3232  -33.8099 C   0  0  0  0  0  0  0  0  0  0  0  0
  -15.6621   17.6323  -32.8569 C   0  0  0  0  0  0  0  0  0  0  0  0
  -15.6418   16.2569  -32.8161 C   0  0  0  0  0  0  0  0  0  0  0  0
  -14.9063   15.5361  -31.8874 O   0  0  0  0  0  0  0  0  0  0  0  0
  -14.2618   14.3626  -32.1237 C   0  0  0  0  0  0  0  0  0  0  0  0
  -13.5296   14.1434  -33.2662 C   0  0  0  0  0  0  0  0  0  0  0  0
  -12.8741   12.9326  -33.4930 C   0  0  0  0  0  0  0  0  0  0  0  0
  -12.9606   11.9227  -32.5453 C   0  0  0  0  0  0  0  0  0  0  0  0
  -13.6895   12.1294  -31.3991 C   0  0  0  0  0  0  0  0  0  0  0  0
  -14.3359   13.3479  -31.1947 C   0  0  0  0  0  0  0  0  0  0  0  0
  -16.3984   15.5909  -33.7558 C   0  0  0  0  0  0  0  0  0  0  0  0
  -17.1426   16.2714  -34.6959 C   0  0  0  0  0  0  0  0  0  0  0  0
  -17.5036   18.8372  -36.9809 C   0  0  0  0  0  0  0  0  0  0  0  0
  -16.1350   18.8667  -37.5287 C   0  0  0  0  0  0  0  0  0  0  0  0
  -15.0534   18.9252  -36.6319 N   0  0  0  0  0  0  0  0  0  0  0  0
  -15.9541   18.8360  -38.7799 O   0  0  0  0  0  0  0  0  0  0  0  0
  -18.6210   19.3382  -37.6396 C   0  0  0  0  0  0  0  0  0  0  0  0
  -18.5768   19.9634  -38.9233 N   0  0  0  0  0  0  0  0  0  0  0  0
  -21.6473   18.5836  -38.2637 C   0  0  0  0  0  0  0  0  0  0  0  0
  1  2  2  0
  2  3  1  0
  3  4  2  0
  3  5  1  0
  5  6  1  0
  6  7  1  0
  7  8  1  0
  8  9  1  0
  9 10  1  1
 10 11  1  0
 11 12  2  0
 12 13  1  0
 13 14  2  0
 14 15  1  0
 15 16  2  0
 16 17  1  0
 17 18  1  0
 18 19  2  0
 19 20  1  0
 20 21  2  0
 21 22  1  0
 22 23  2  0
 16 24  1  0
 24 25  2  0
 12 26  1  0
 26 27  1  0
 27 28  1  0
 27 29  2  0
 26 30  2  0
 30 31  1  0
  9 32  1  0
 32  5  1  0
 30 10  1  0
 25 13  1  0
 23 18  1  0
M  END
$$$$
