
     RDKit          3D

 29 29  0  0  0  0  0  0  0  0999 V2000
   -7.5122   -3.7870  -34.1891 C   0  0  0  0  0  0  0  0  0  0  0  0
   -7.8067   -2.4366  -34.4945 O   0  0  0  0  0  0  0  0  0  0  0  0
   -9.0412   -1.9478  -34.1108 C   0  0  0  0  0  0  0  0  0  0  0  0
   -9.9891   -2.6980  -33.4544 C   0  0  0  0  0  0  0  0  0  0  0  0
  -11.2207   -2.1832  -33.0801 C   0  0  0  0  0  0  0  0  0  0  0  0
  -11.4853   -0.8725  -33.3853 C   0  0  0  0  0  0  0  0  0  0  0  0
  -12.7933   -0.2752  -33.0037 C   0  0  0  0  0  0  0  0  0  0  0  0
  -13.7367   -0.5048  -34.1604 C   0  0  0  0  0  0  0  0  0  0  0  0
  -14.9992    0.0604  -33.8592 N   0  0  0  0  0  0  0  0  0  0  0  0
  -16.0236   -0.0779  -34.8292 C   0  0  0  0  0  0  0  0  0  0  0  0
  -17.3153   -0.6332  -34.2938 C   0  0  0  0  0  0  0  0  0  0  0  0
  -17.7419   -0.0407  -33.0746 N   0  0  0  0  0  0  0  0  0  0  0  0
  -18.6945   -0.8219  -32.3411 C   0  0  0  0  0  0  0  0  0  0  0  0
  -20.0271   -0.9285  -33.0149 C   0  0  0  0  0  0  0  0  0  0  0  0
  -20.7087    0.3881  -33.2377 C   0  0  0  0  0  0  0  0  0  0  0  0
  -20.9957    1.1549  -32.0267 C   0  0  0  0  0  0  0  0  0  0  0  0
  -22.1842    0.9969  -31.3398 C   0  0  0  0  0  0  0  0  0  0  0  0
  -22.4368    1.7392  -30.1901 C   0  0  0  0  0  0  0  0  0  0  0  0
  -21.4983    2.6355  -29.7343 C   0  0  0  0  0  0  0  0  0  0  0  0
  -20.3249    2.7960  -30.4067 C   0  0  0  0  0  0  0  0  0  0  0  0
  -20.0834    2.0531  -31.5491 C   0  0  0  0  0  0  0  0  0  0  0  0
  -16.7563    0.6108  -32.2878 C   0  0  0  0  0  0  0  0  0  0  0  0
  -15.4084   -0.0490  -32.5070 C   0  0  0  0  0  0  0  0  0  0  0  0
  -10.5652   -0.0731  -34.0453 C   0  0  0  0  0  0  0  0  0  0  0  0
   -9.3422   -0.6357  -34.4005 C   0  0  0  0  0  0  0  0  0  0  0  0
   -8.3930    0.1227  -35.0603 O   0  0  0  0  0  0  0  0  0  0  0  0
   -8.7009    1.4690  -35.3581 C   0  0  0  0  0  0  0  0  0  0  0  0
  -15.8660   -0.1704  -32.9274 Cl  0  0  0  0  0  0  0  0  0  0  0  0
  -15.8649   -0.1706  -32.9278 Cl  0  0  0  0  0  0  0  0  0  0  0  0
  1  2  1  0
  2  3  1  0
  3  4  2  0
  4  5  1  0
  5  6  2  0
  6  7  1  0
  7  8  1  0
  8  9  1  0
  9 10  1  0
 10 11  1  0
 11 12  1  0
 12 13  1  0
 13 14  1  0
 14 15  1  0
 15 16  1  0
 16 17  2  0
 17 18  1  0
 18 19  2  0
 19 20  1  0
 20 21  2  0
 12 22  1  0
 22 23  1  0
  6 24  1  0
 24 25  2  0
 25 26  1  0
 26 27  1  0
 25  3  1  0
 23  9  1  0
 21 16  1  0
M  END
$$$$
