
     RDKit          3D

 34 38  0  0  0  0  0  0  0  0999 V2000
  -22.0759   42.2581  -20.7824 O   0  0  0  0  0  0  0  0  0  0  0  0
  -21.3008   41.2982  -20.9444 C   0  0  0  0  0  0  0  0  0  0  0  0
  -21.7117   40.0650  -21.2871 N   0  0  0  0  0  0  0  0  0  0  0  0
  -20.6053   39.2866  -21.3724 C   0  0  0  0  0  0  0  0  0  0  0  0
  -20.3992   37.9532  -21.6797 C   0  0  0  0  0  0  0  0  0  0  0  0
  -19.1463   37.3790  -21.6999 C   0  0  0  0  0  0  0  0  0  0  0  0
  -18.0607   38.1713  -21.4008 C   0  0  0  0  0  0  0  0  0  0  0  0
  -18.2368   39.4990  -21.0920 C   0  0  0  0  0  0  0  0  0  0  0  0
  -19.5045   40.0609  -21.0764 C   0  0  0  0  0  0  0  0  0  0  0  0
  -19.9494   41.3284  -20.8076 N   0  0  0  0  0  0  0  0  0  0  0  0
  -19.0721   42.3946  -20.4614 C   0  0  0  0  0  0  0  0  0  0  0  0
  -17.5923   42.0053  -20.5162 C   0  0  0  0  0  0  0  0  0  0  0  0
  -16.8706   43.1410  -19.8223 C   0  0  0  0  0  0  0  0  0  0  0  0
  -16.9589   44.2963  -20.6860 N   0  0  0  0  0  0  0  0  0  0  0  0
  -16.2845   45.4006  -20.0346 C   0  0  0  0  0  0  0  0  0  0  0  0
  -14.7836   45.0816  -19.9804 C   0  0  0  0  0  0  0  0  0  0  0  0
  -14.3169   44.9483  -18.5671 C   0  0  0  0  0  0  0  0  0  0  0  0
  -12.8766   45.2263  -18.3369 C   0  0  0  0  0  0  0  0  0  0  0  0
  -12.5569   45.9324  -17.0777 C   0  0  0  0  0  0  0  0  0  0  0  0
  -11.7007   46.9829  -16.9396 C   0  0  0  0  0  0  0  0  0  0  0  0
  -11.4946   47.5709  -15.7142 C   0  0  0  0  0  0  0  0  0  0  0  0
  -12.1640   47.0966  -14.5854 C   0  0  0  0  0  0  0  0  0  0  0  0
  -11.9882   47.6477  -13.3641 F   0  0  0  0  0  0  0  0  0  0  0  0
  -13.0311   46.0402  -14.6954 C   0  0  0  0  0  0  0  0  0  0  0  0
  -13.2142   45.4762  -15.9337 C   0  0  0  0  0  0  0  0  0  0  0  0
  -12.0518   43.9956  -18.4082 C   0  0  0  0  0  0  0  0  0  0  0  0
  -12.3250   43.0530  -19.3656 C   0  0  0  0  0  0  0  0  0  0  0  0
  -11.5838   41.8881  -19.4977 C   0  0  0  0  0  0  0  0  0  0  0  0
  -10.5412   41.6805  -18.6343 C   0  0  0  0  0  0  0  0  0  0  0  0
   -9.7728   40.5672  -18.7017 F   0  0  0  0  0  0  0  0  0  0  0  0
  -10.2421   42.6151  -17.6580 C   0  0  0  0  0  0  0  0  0  0  0  0
  -11.0046   43.7867  -17.5420 C   0  0  0  0  0  0  0  0  0  0  0  0
  -18.2618   44.6913  -21.0603 C   0  0  0  0  0  0  0  0  0  0  0  0
  -19.2142   43.5678  -21.3640 C   0  0  0  0  0  0  0  0  0  0  0  0
  1  2  2  0
  2  3  1  0
  3  4  1  0
  4  5  2  0
  5  6  1  0
  6  7  2  0
  7  8  1  0
  8  9  2  0
  9 10  1  0
 10 11  1  0
 11 12  1  0
 12 13  1  0
 13 14  1  0
 14 15  1  0
 15 16  1  0
 16 17  1  0
 17 18  1  0
 18 19  1  0
 19 20  2  0
 20 21  1  0
 21 22  2  0
 22 23  1  0
 22 24  1  0
 24 25  2  0
 18 26  1  0
 26 27  2  0
 27 28  1  0
 28 29  2  0
 29 30  1  0
 29 31  1  0
 31 32  2  0
 14 33  1  0
 33 34  1  0
 10  2  1  0
 34 11  1  0
  9  4  1  0
 25 19  1  0
 32 26  1  0
M  END
$$$$
