
     RDKit          3D

 26 29  0  0  0  0  0  0  0  0999 V2000
  -24.2782   25.9104  -39.6842 O   0  0  0  0  0  0  0  0  0  0  0  0
  -23.7329   25.1667  -38.8085 C   0  0  0  0  0  0  0  0  0  0  0  0
  -22.2932   24.9596  -38.9305 C   0  0  0  0  0  0  0  0  0  0  0  0
  -21.7254   24.1658  -39.9048 C   0  0  0  0  0  0  0  0  0  0  0  0
  -20.3597   23.9888  -39.9904 C   0  0  0  0  0  0  0  0  0  0  0  0
  -19.5081   24.6026  -39.1004 C   0  0  0  0  0  0  0  0  0  0  0  0
  -17.7684   24.4335  -39.1354 Cl  0  0  0  0  0  0  0  0  0  0  0  0
  -20.0521   25.4001  -38.1195 C   0  0  0  0  0  0  0  0  0  0  0  0
  -21.4276   25.5844  -38.0254 C   0  0  0  0  0  0  0  0  0  0  0  0
  -24.5058   24.5671  -37.7567 N   0  0  0  0  0  0  0  0  0  0  0  0
  -24.0420   24.4772  -36.4097 C   0  0  0  0  0  0  0  0  0  0  0  0
  -25.0555   24.7820  -35.3523 C   0  0  0  0  0  0  0  0  0  0  0  0
  -26.4077   24.5615  -35.7633 N   0  0  0  0  0  0  0  0  0  0  0  0
  -27.4240   24.1077  -34.8844 C   0  0  0  0  0  0  0  0  0  0  0  0
  -27.0806   23.3075  -33.7843 C   0  0  0  0  0  0  0  0  0  0  0  0
  -28.0911   22.8744  -32.9635 C   0  0  0  0  0  0  0  0  0  0  0  0
  -29.3636   23.2164  -33.2215 N   0  0  0  0  0  0  0  0  0  0  0  0
  -29.7260   23.9821  -34.2675 C   0  0  0  0  0  0  0  0  0  0  0  0
  -31.0514   24.3220  -34.4989 C   0  0  0  0  0  0  0  0  0  0  0  0
  -31.4501   25.1103  -35.5572 C   0  0  0  0  0  0  0  0  0  0  0  0
  -33.1358   25.5306  -35.8307 Cl  0  0  0  0  0  0  0  0  0  0  0  0
  -30.4687   25.5669  -36.4062 C   0  0  0  0  0  0  0  0  0  0  0  0
  -29.1300   25.2333  -36.1868 C   0  0  0  0  0  0  0  0  0  0  0  0
  -28.7397   24.4448  -35.1271 C   0  0  0  0  0  0  0  0  0  0  0  0
  -26.7819   24.7941  -37.1449 C   0  0  0  0  0  0  0  0  0  0  0  0
  -25.8126   24.0345  -38.0732 C   0  0  0  0  0  0  0  0  0  0  0  0
  1  2  2  0
  2  3  1  0
  3  4  2  0
  4  5  1  0
  5  6  2  0
  6  7  1  0
  6  8  1  0
  8  9  2  0
  2 10  1  0
 10 11  1  0
 11 12  1  0
 12 13  1  0
 13 14  1  0
 14 15  2  0
 15 16  1  0
 16 17  2  0
 17 18  1  0
 18 19  2  0
 19 20  1  0
 20 21  1  0
 20 22  2  0
 22 23  1  0
 23 24  2  0
 13 25  1  0
 25 26  1  0
  9  3  1  0
 26 10  1  0
 24 14  1  0
 24 18  1  0
M  END
$$$$
