
     RDKit          3D

 14 14  0  0  0  0  0  0  0  0999 V2000
  -16.2594   19.7777  -30.3222 C   0  0  0  0  0  0  0  0  0  0  0  0
  -16.2808   18.8738  -31.5243 C   0  0  0  0  0  0  0  0  0  0  0  0
  -15.5323   17.6668  -31.2759 N   0  0  0  0  0  0  0  0  0  0  0  0
  -16.1560   16.4979  -30.7438 C   0  0  0  0  0  0  0  0  0  0  0  0
  -15.4074   15.4367  -30.4236 N   0  0  0  0  0  0  0  0  0  0  0  0
  -15.9376   14.2996  -29.9153 C   0  0  0  0  0  0  0  0  0  0  0  0
  -15.0967   13.2062  -29.5941 N   0  0  0  0  0  0  0  0  0  0  0  0
  -13.6906   13.1567  -29.9080 C   0  0  0  0  0  0  0  0  0  0  0  0
  -13.0033   12.0288  -29.2121 C   0  0  0  0  0  0  0  0  0  0  0  0
  -17.2693   14.2704  -29.7390 N   0  0  0  0  0  0  0  0  0  0  0  0
  -18.0669   15.3069  -30.0436 C   0  0  0  0  0  0  0  0  0  0  0  0
  -19.8317   15.2811  -29.8148 S   0  0  0  0  0  0  0  0  0  0  0  0
  -20.6251   16.7619  -30.4338 C   0  0  0  0  0  0  0  0  0  0  0  0
  -17.4795   16.4031  -30.5429 N   0  0  0  0  0  0  0  0  0  0  0  0
  1  2  1  0
  2  3  1  0
  3  4  1  0
  4  5  2  0
  5  6  1  0
  6  7  1  0
  7  8  1  0
  8  9  1  0
  6 10  2  0
 10 11  1  0
 11 12  1  0
 12 13  1  0
 11 14  2  0
 14  4  1  0
M  END
$$$$
