
     RDKit          3D

 23 25  0  0  0  0  0  0  0  0999 V2000
  -14.6211   31.1450  -23.5508 C   0  0  0  0  0  0  0  0  0  0  0  0
  -15.9482   31.7950  -23.7873 C   0  0  0  0  0  0  0  0  0  0  0  0
  -16.2597   32.3583  -25.0052 C   0  0  0  0  0  0  0  0  0  0  0  0
  -17.4598   32.9644  -25.2709 C   0  0  0  0  0  0  0  0  0  0  0  0
  -18.4154   33.0237  -24.2846 C   0  0  0  0  0  0  0  0  0  0  0  0
  -19.6524   33.6270  -24.4977 O   0  0  0  0  0  0  0  0  0  0  0  0
  -19.9645   34.7431  -23.7396 C   0  0  0  0  0  0  0  0  0  0  0  0
  -21.1330   34.7706  -23.0128 C   0  0  0  0  0  0  0  0  0  0  0  0
  -21.4452   35.8782  -22.2589 C   0  0  0  0  0  0  0  0  0  0  0  0
  -20.6172   36.9865  -22.2003 C   0  0  0  0  0  0  0  0  0  0  0  0
  -19.4571   36.9540  -22.9246 C   0  0  0  0  0  0  0  0  0  0  0  0
  -19.1214   35.8461  -23.6930 C   0  0  0  0  0  0  0  0  0  0  0  0
  -18.7780   38.2349  -22.6874 C   0  0  0  0  0  0  0  0  0  0  0  0
  -17.6555   38.5045  -23.2351 O   0  0  0  0  0  0  0  0  0  0  0  0
  -19.5575   39.0109  -21.8171 N   0  0  0  0  0  0  0  0  0  0  0  0
  -19.2199   40.3503  -21.3418 C   0  0  0  0  0  0  0  0  0  0  0  0
  -18.2861   40.2586  -20.1896 C   0  0  0  0  0  0  0  0  0  0  0  0
  -17.7182   41.3298  -19.8301 O   0  0  0  0  0  0  0  0  0  0  0  0
  -18.0389   39.0709  -19.5324 O   0  0  0  0  0  0  0  0  0  0  0  0
  -20.7008   38.2586  -21.5023 C   0  0  0  0  0  0  0  0  0  0  0  0
  -21.6510   38.6268  -20.7353 O   0  0  0  0  0  0  0  0  0  0  0  0
  -18.1214   32.4649  -23.0585 C   0  0  0  0  0  0  0  0  0  0  0  0
  -16.9113   31.8591  -22.8056 C   0  0  0  0  0  0  0  0  0  0  0  0
  1  2  1  0
  2  3  2  0
  3  4  1  0
  4  5  2  0
  5  6  1  0
  6  7  1  0
  7  8  2  0
  8  9  1  0
  9 10  2  0
 10 11  1  0
 11 12  2  0
 11 13  1  0
 13 14  2  0
 13 15  1  0
 15 16  1  0
 16 17  1  0
 17 18  2  0
 17 19  1  0
 15 20  1  0
 20 21  2  0
  5 22  1  0
 22 23  2  0
 23  2  1  0
 12  7  1  0
 20 10  1  0
M  END
$$$$
