
     RDKit          3D

 13 13  0  0  0  0  0  0  0  0999 V2000
  -12.8147   46.3071  -18.5010 N   0  0  0  0  0  0  0  0  0  0  0  0
  -13.8052   45.2735  -18.3660 C   0  0  0  0  0  0  0  0  0  0  0  0
  -14.7862   45.2571  -19.5107 C   0  0  0  0  0  0  0  0  0  0  0  0
  -15.8102   44.2165  -19.3868 C   0  0  0  0  0  0  0  0  0  0  0  0
  -15.5341   42.8899  -19.4594 C   0  0  0  0  0  0  0  0  0  0  0  0
  -16.5444   41.9468  -19.3349 C   0  0  0  0  0  0  0  0  0  0  0  0
  -17.8618   42.3084  -19.1338 C   0  0  0  0  0  0  0  0  0  0  0  0
  -19.1063   41.1116  -18.9813 S   0  0  0  0  0  6  0  0  0  0  0  0
  -18.8857   40.0935  -17.6145 N   0  0  0  0  0  0  0  0  0  0  0  0
  -20.4720   41.7424  -18.8576 O   0  0  0  0  0  0  0  0  0  0  0  0
  -19.1407   40.2130  -20.2000 O   0  0  0  0  0  0  0  0  0  0  0  0
  -18.1248   43.6657  -19.0624 C   0  0  0  0  0  0  0  0  0  0  0  0
  -17.1168   44.6110  -19.1865 C   0  0  0  0  0  0  0  0  0  0  0  0
  1  2  1  0
  2  3  1  0
  3  4  1  0
  4  5  2  0
  5  6  1  0
  6  7  2  0
  7  8  1  0
  8  9  1  0
  8 10  2  0
  8 11  2  0
  7 12  1  0
 12 13  2  0
 13  4  1  0
M  END
$$$$
