
     RDKit          3D

 26 29  0  0  0  0  0  0  0  0999 V2000
  -19.2146   18.6900  -39.0476 C   0  0  0  0  0  0  0  0  0  0  0  0
  -18.0908   18.7917  -40.0130 C   0  0  0  0  0  0  0  0  0  0  0  0
  -18.3283   19.4111  -41.2025 C   0  0  0  0  0  0  0  0  0  0  0  0
  -17.3107   19.5083  -42.0937 C   0  0  0  0  0  0  0  0  0  0  0  0
  -17.5258   20.1490  -43.3443 O   0  0  0  0  0  0  0  0  0  0  0  0
  -16.0407   18.9776  -41.7871 C   0  0  0  0  0  0  0  0  0  0  0  0
  -15.1157   19.1870  -42.8748 C   0  0  0  0  0  0  0  0  0  0  0  0
  -14.3117   20.2884  -43.0389 C   0  0  0  0  0  0  0  0  0  0  0  0
  -13.4017   20.3872  -44.0543 C   0  0  0  0  0  0  0  0  0  0  0  0
  -13.2684   19.3565  -44.9584 C   0  0  0  0  0  0  0  0  0  0  0  0
  -12.2791   19.4890  -46.0423 C   0  0  1  0  0  0  0  0  0  0  0  0
  -11.3852   18.2851  -46.1266 C   0  0  0  0  0  0  0  0  0  0  0  0
  -12.9183   19.7282  -47.4013 C   0  0  0  0  0  0  0  0  0  0  0  0
  -11.9672   19.9867  -48.4426 N   0  0  0  0  0  0  0  0  0  0  0  0
  -14.0601   18.2438  -44.8172 C   0  0  0  0  0  0  0  0  0  0  0  0
  -14.9782   18.1424  -43.7941 C   0  0  0  0  0  0  0  0  0  0  0  0
  -15.7993   18.3614  -40.6059 C   0  0  0  0  0  0  0  0  0  0  0  0
  -16.8387   18.2596  -39.6903 C   0  0  0  0  0  0  0  0  0  0  0  0
  -16.7755   17.6937  -38.4980 N   0  0  0  0  0  0  0  0  0  0  0  0
  -15.6028   17.1632  -38.1228 C   0  0  0  0  0  0  0  0  0  0  0  0
  -15.4425   16.6046  -37.0116 O   0  0  0  0  0  0  0  0  0  0  0  0
  -14.5415   17.2428  -39.0035 C   0  0  0  0  0  0  0  0  0  0  0  0
  -12.8693   16.6451  -38.8075 S   0  0  0  0  0  0  0  0  0  0  0  0
  -12.2754   17.1850  -40.3774 C   0  0  0  0  0  0  0  0  0  0  0  0
  -13.4092   17.7922  -40.9505 C   0  0  0  0  0  0  0  0  0  0  0  0
  -14.5347   17.8073  -40.2391 C   0  0  0  0  0  0  0  0  0  0  0  0
  1  2  1  0
  2  3  2  0
  3  4  1  0
  4  5  1  0
  4  6  2  0
  6  7  1  0
  7  8  2  0
  8  9  1  0
  9 10  2  0
 10 11  1  0
 11 12  1  6
 11 13  1  0
 13 14  1  0
 10 15  1  0
 15 16  2  0
  6 17  1  0
 17 18  2  0
 18 19  1  0
 19 20  1  0
 20 21  2  0
 20 22  1  0
 22 23  1  0
 23 24  1  0
 24 25  2  0
 25 26  1  0
 18  2  1  0
 26 22  2  0
 16  7  1  0
 26 17  1  0
M  END
$$$$
