
     RDKit          3D

 31 35  0  0  0  0  0  0  0  0999 V2000
  -28.3082   23.4075  -38.4888 C   0  0  0  0  0  0  0  0  0  0  0  0
  -27.6901   24.4145  -37.5527 C   0  0  0  0  0  0  0  0  0  0  0  0
  -28.4376   25.1134  -36.6369 C   0  0  0  0  0  0  0  0  0  0  0  0
  -27.7981   26.0124  -35.8190 C   0  0  0  0  0  0  0  0  0  0  0  0
  -26.4166   26.2530  -35.8720 C   0  0  0  0  0  0  0  0  0  0  0  0
  -25.6845   25.5576  -36.7779 C   0  0  0  0  0  0  0  0  0  0  0  0
  -26.3350   24.6393  -37.6154 C   0  0  0  0  0  0  0  0  0  0  0  0
  -24.2325   25.7206  -36.8892 C   0  0  0  0  0  0  0  0  0  0  0  0
  -23.7988   25.8808  -38.3345 C   0  0  0  0  0  0  0  0  0  0  0  0
  -22.8611   24.8178  -38.8233 C   0  0  0  0  0  0  0  0  0  0  0  0
  -21.7274   24.6176  -37.9784 N   0  0  0  0  0  0  0  0  0  0  0  0
  -21.1181   23.3530  -38.2263 C   0  0  0  0  0  0  0  0  0  0  0  0
  -21.7630   22.4294  -39.1833 C   0  0  0  0  0  0  0  0  0  0  0  0
  -21.0412   22.2265  -40.4530 C   0  0  0  0  0  0  0  0  0  0  0  0
  -20.1115   21.2347  -40.5779 N   0  0  0  0  0  0  0  0  0  0  0  0
  -19.5902   21.2830  -41.7996 C   0  0  0  0  0  0  0  0  0  0  0  0
  -18.5617   20.3632  -42.2717 C   0  0  0  0  0  0  0  0  0  0  0  0
  -18.5101   20.0538  -43.6023 C   0  0  0  0  0  0  0  0  0  0  0  0
  -17.5486   19.1960  -44.1243 C   0  0  0  0  0  0  0  0  0  0  0  0
  -16.6028   18.6255  -43.2837 C   0  0  0  0  0  0  0  0  0  0  0  0
  -16.6434   18.9299  -41.9352 C   0  0  0  0  0  0  0  0  0  0  0  0
  -17.6254   19.7969  -41.4477 C   0  0  0  0  0  0  0  0  0  0  0  0
  -20.1723   22.2653  -42.4114 O   0  0  0  0  0  0  0  0  0  0  0  0
  -21.0608   22.8663  -41.6315 C   0  0  0  0  0  0  0  0  0  0  0  0
  -21.9135   24.0272  -42.0027 C   0  0  0  0  0  0  0  0  0  0  0  0
  -22.0567   24.6917  -36.5698 C   0  0  0  0  0  0  0  0  0  0  0  0
  -23.5280   24.4302  -36.3951 C   0  0  0  0  0  0  0  0  0  0  0  0
  -23.7418   26.7178  -36.0726 O   0  0  0  0  0  0  0  0  0  0  0  0
  -24.4446   27.4226  -35.1558 C   0  0  0  0  0  0  0  0  0  0  0  0
  -23.8178   28.2743  -34.4251 O   0  0  0  0  0  0  0  0  0  0  0  0
  -25.8416   27.2359  -34.9938 N   0  0  0  0  0  0  0  0  0  0  0  0
  1  2  1  0
  2  3  2  0
  3  4  1  0
  4  5  2  0
  5  6  1  0
  6  7  2  0
  6  8  1  0
  8  9  1  0
  9 10  1  0
 10 11  1  0
 11 12  1  0
 12 13  1  0
 13 14  1  0
 14 15  1  0
 15 16  2  0
 16 17  1  0
 17 18  2  0
 18 19  1  0
 19 20  2  0
 20 21  1  0
 21 22  2  0
 16 23  1  0
 23 24  1  0
 24 25  1  0
 11 26  1  0
 26 27  1  0
  8 28  1  0
 28 29  1  0
 29 30  2  0
 29 31  1  0
  7  2  1  0
 27  8  1  0
 31  5  1  0
 24 14  2  0
 22 17  1  0
M  END
$$$$
