
     RDKit          3D

 21 23  0  0  0  0  0  0  0  0999 V2000
  -20.6362   28.7096  -27.9527 C   0  0  0  0  0  0  0  0  0  0  0  0
  -21.7572   29.7486  -27.8389 C   0  0  0  0  0  0  0  0  0  0  0  0
  -22.9898   29.0679  -27.4368 C   0  0  0  0  0  0  0  0  0  0  0  0
  -24.0629   29.7148  -27.3640 O   0  0  0  0  0  0  0  0  0  0  0  0
  -23.0358   27.7059  -27.1225 O   0  0  0  0  0  0  0  0  0  0  0  0
  -21.3397   30.8028  -26.8961 C   0  0  0  0  0  0  0  0  0  0  0  0
  -21.6768   32.1136  -27.1686 C   0  0  0  0  0  0  0  0  0  0  0  0
  -21.3235   33.1483  -26.3386 C   0  0  0  0  0  0  0  0  0  0  0  0
  -20.6087   32.8580  -25.1981 C   0  0  0  0  0  0  0  0  0  0  0  0
  -20.2245   33.9015  -24.3139 N   0  0  0  0  0  0  0  0  0  0  0  0
  -21.0303   35.0272  -23.9314 C   0  0  0  0  0  0  0  0  0  0  0  0
  -20.2229   35.8389  -23.0059 C   0  0  0  0  0  0  0  0  0  0  0  0
  -20.5281   37.0347  -22.3420 C   0  0  0  0  0  0  0  0  0  0  0  0
  -19.6208   37.6469  -21.5043 C   0  0  0  0  0  0  0  0  0  0  0  0
  -18.3839   37.0451  -21.3313 C   0  0  0  0  0  0  0  0  0  0  0  0
  -18.0937   35.8697  -21.9884 C   0  0  0  0  0  0  0  0  0  0  0  0
  -19.0027   35.2573  -22.8271 C   0  0  0  0  0  0  0  0  0  0  0  0
  -18.9891   34.0496  -23.6356 C   0  0  0  0  0  0  0  0  0  0  0  0
  -18.0362   33.2346  -23.7394 O   0  0  0  0  0  0  0  0  0  0  0  0
  -20.2463   31.5499  -24.8824 C   0  0  0  0  0  0  0  0  0  0  0  0
  -20.6271   30.5498  -25.7509 C   0  0  0  0  0  0  0  0  0  0  0  0
  1  2  1  0
  2  3  1  0
  3  4  2  0
  3  5  1  0
  2  6  1  0
  6  7  2  0
  7  8  1  0
  8  9  2  0
  9 10  1  0
 10 11  1  0
 11 12  1  0
 12 13  2  0
 13 14  1  0
 14 15  2  0
 15 16  1  0
 16 17  2  0
 17 18  1  0
 18 19  2  0
  9 20  1  0
 20 21  2  0
 21  6  1  0
 18 10  1  0
 17 12  1  0
M  END
$$$$
