
     RDKit          3D

 30 33  0  0  0  0  0  0  0  0999 V2000
  -12.6365   18.3120  -41.1424 O   0  0  0  0  0  0  0  0  0  0  0  0
  -13.2181   19.3611  -41.5487 C   0  0  0  0  0  0  0  0  0  0  0  0
  -12.4552   20.2593  -42.2737 O   0  0  0  0  0  0  0  0  0  0  0  0
  -14.6116   19.6314  -41.2814 C   0  0  0  0  0  0  0  0  0  0  0  0
  -15.4752   18.6685  -40.7798 C   0  0  0  0  0  0  0  0  0  0  0  0
  -16.7989   18.9746  -40.5405 C   0  0  0  0  0  0  0  0  0  0  0  0
  -17.3162   20.2290  -40.7842 C   0  0  0  0  0  0  0  0  0  0  0  0
  -16.4525   21.2037  -41.2893 C   0  0  0  0  0  0  0  0  0  0  0  0
  -15.1188   20.8870  -41.5279 C   0  0  0  0  0  0  0  0  0  0  0  0
  -17.2681   22.4039  -41.4425 C   0  0  0  0  0  0  0  0  0  0  0  0
  -16.8119   23.5006  -41.8822 O   0  0  0  0  0  0  0  0  0  0  0  0
  -18.6086   22.1550  -41.0341 N   0  0  0  0  0  0  0  0  0  0  0  0
  -19.6900   23.1092  -41.0479 C   0  0  0  0  0  0  0  0  0  0  0  0
  -19.7944   24.0976  -40.0914 C   0  0  0  0  0  0  0  0  0  0  0  0
  -20.8033   25.0226  -40.0672 C   0  0  0  0  0  0  0  0  0  0  0  0
  -21.7729   24.9740  -41.0460 C   0  0  0  0  0  0  0  0  0  0  0  0
  -21.6986   23.9882  -42.0285 C   0  0  0  0  0  0  0  0  0  0  0  0
  -22.7045   23.9956  -42.9823 O   0  0  0  0  0  0  0  0  0  0  0  0
  -22.8529   25.0506  -43.8690 C   0  0  0  0  0  0  0  0  0  0  0  0
  -23.8738   24.9793  -44.8095 C   0  0  0  0  0  0  0  0  0  0  0  0
  -24.0430   26.0135  -45.7018 C   0  0  0  0  0  0  0  0  0  0  0  0
  -23.2289   27.1228  -45.6928 C   0  0  0  0  0  0  0  0  0  0  0  0
  -23.4422   28.1775  -46.6423 N   0  0  0  0  0  4  0  0  0  0  0  0
  -22.7667   29.2216  -46.5907 O   0  0  0  0  0  0  0  0  0  0  0  0
  -24.3862   28.0664  -47.6231 O   0  0  0  0  0  1  0  0  0  0  0  0
  -22.2206   27.1854  -44.7584 C   0  0  0  0  0  0  0  0  0  0  0  0
  -22.0460   26.1649  -43.8705 C   0  0  0  0  0  0  0  0  0  0  0  0
  -20.6672   23.0696  -42.0244 C   0  0  0  0  0  0  0  0  0  0  0  0
  -18.6439   20.7959  -40.6215 C   0  0  0  0  0  0  0  0  0  0  0  0
  -19.6898   20.2341  -40.1936 O   0  0  0  0  0  0  0  0  0  0  0  0
  1  2  2  0
  2  3  1  0
  2  4  1  0
  4  5  2  0
  5  6  1  0
  6  7  2  0
  7  8  1  0
  8  9  2  0
  8 10  1  0
 10 11  2  0
 10 12  1  0
 12 13  1  0
 13 14  2  0
 14 15  1  0
 15 16  2  0
 16 17  1  0
 17 18  1  0
 18 19  1  0
 19 20  2  0
 20 21  1  0
 21 22  2  0
 22 23  1  0
 23 24  2  0
 23 25  1  0
 22 26  1  0
 26 27  2  0
 17 28  2  0
 12 29  1  0
 29 30  2  0
  9  4  1  0
 28 13  1  0
 29  7  1  0
 27 19  1  0
M  CHG  2  23   1  25  -1
M  END
$$$$
