
     RDKit          3D

 43 47  0  0  0  0  0  0  0  0999 V2000
  -17.7433   16.6743  -35.6656 C   0  0  0  0  0  0  0  0  0  0  0  0
  -17.3813   17.4350  -34.4436 C   0  0  0  0  0  0  0  0  0  0  0  0
  -16.1155   18.0270  -34.4006 C   0  0  0  0  0  0  0  0  0  0  0  0
  -15.2613   17.8549  -35.5410 N   0  0  0  0  0  0  0  0  0  0  0  0
  -15.2537   18.9415  -36.4689 C   0  0  0  0  0  0  0  0  0  0  0  0
  -15.9608   19.9556  -36.2085 O   0  0  0  0  0  0  0  0  0  0  0  0
  -14.4725   18.9328  -37.6910 C   0  0  0  0  0  0  0  0  0  0  0  0
  -13.3655   19.7145  -37.8382 C   0  0  0  0  0  0  0  0  0  0  0  0
  -12.6495   19.6812  -39.0380 C   0  0  0  0  0  0  0  0  0  0  0  0
  -13.0592   18.8633  -40.0666 C   0  0  0  0  0  0  0  0  0  0  0  0
  -12.3244   18.8071  -41.3400 C   0  0  0  0  0  0  0  0  0  0  0  0
  -12.3581   17.4299  -41.9565 C   0  0  0  0  0  0  0  0  0  0  0  0
  -10.8529   19.0931  -41.0403 C   0  0  0  0  0  0  0  0  0  0  0  0
  -12.8722   19.8284  -42.3109 C   0  0  0  0  0  0  0  0  0  0  0  0
  -14.1875   18.0789  -39.8887 C   0  0  0  0  0  0  0  0  0  0  0  0
  -14.9045   18.0979  -38.7175 C   0  0  0  0  0  0  0  0  0  0  0  0
  -15.7420   18.7238  -33.2946 C   0  0  0  0  0  0  0  0  0  0  0  0
  -16.5906   18.8544  -32.2221 C   0  0  0  0  0  0  0  0  0  0  0  0
  -17.8606   18.2657  -32.2536 C   0  0  0  0  0  0  0  0  0  0  0  0
  -18.2295   17.5705  -33.3586 C   0  0  0  0  0  0  0  0  0  0  0  0
  -19.5378   16.9012  -33.4420 C   0  0  0  0  0  0  0  0  0  0  0  0
  -19.6814   15.5638  -33.7917 C   0  0  0  0  0  0  0  0  0  0  0  0
  -20.8947   14.9724  -33.8901 N   0  0  0  0  0  0  0  0  0  0  0  0
  -20.9769   13.5764  -34.2571 C   0  0  0  0  0  0  0  0  0  0  0  0
  -21.9931   15.7007  -33.6416 C   0  0  0  0  0  0  0  0  0  0  0  0
  -23.1164   15.1405  -33.7376 O   0  0  0  0  0  0  0  0  0  0  0  0
  -21.9078   17.0467  -33.2852 C   0  0  0  0  0  0  0  0  0  0  0  0
  -23.1318   17.7171  -33.0428 N   0  0  0  0  0  0  0  0  0  0  0  0
  -23.1318   19.1104  -32.6607 C   0  0  0  0  0  0  0  0  0  0  0  0
  -24.2109   19.9166  -32.9503 C   0  0  0  0  0  0  0  0  0  0  0  0
  -24.2402   21.2579  -32.6335 C   0  0  0  0  0  0  0  0  0  0  0  0
  -23.1494   21.8510  -31.9940 C   0  0  0  0  0  0  0  0  0  0  0  0
  -23.1477   23.2716  -31.6774 C   0  0  0  0  0  0  0  0  0  0  0  0
  -22.4449   24.0270  -32.4485 O   0  0  0  0  0  0  0  0  0  0  0  0
  -23.8257   23.8994  -30.6251 N   0  0  0  0  0  0  0  0  0  0  0  0
  -23.6829   25.3435  -30.3883 C   0  0  0  0  0  0  0  0  0  0  0  0
  -25.0966   25.9131  -30.4375 C   0  0  0  0  0  0  0  0  0  0  0  0
  -25.8214   25.3071  -29.4086 O   0  0  0  0  0  0  0  0  0  0  0  0
  -26.0116   23.9535  -29.6393 C   0  0  0  0  0  0  0  0  0  0  0  0
  -24.7061   23.1976  -29.7108 C   0  0  0  0  0  0  0  0  0  0  0  0
  -22.0796   21.0376  -31.7086 C   0  0  0  0  0  0  0  0  0  0  0  0
  -22.0503   19.6720  -32.0317 C   0  0  0  0  0  0  0  0  0  0  0  0
  -20.6866   17.5648  -33.2074 N   0  0  0  0  0  0  0  0  0  0  0  0
  1  2  1  0
  2  3  2  0
  3  4  1  0
  4  5  1  0
  5  6  2  0
  5  7  1  0
  7  8  2  0
  8  9  1  0
  9 10  2  0
 10 11  1  0
 11 12  1  0
 11 13  1  0
 11 14  1  0
 10 15  1  0
 15 16  2  0
  3 17  1  0
 17 18  2  0
 18 19  1  0
 19 20  2  0
 20 21  1  0
 21 22  2  0
 22 23  1  0
 23 24  1  0
 23 25  1  0
 25 26  2  0
 25 27  1  0
 27 28  1  0
 28 29  1  0
 29 30  2  0
 30 31  1  0
 31 32  2  0
 32 33  1  0
 33 34  2  0
 33 35  1  0
 35 36  1  0
 36 37  1  0
 37 38  1  0
 38 39  1  0
 39 40  1  0
 32 41  1  0
 41 42  2  0
 27 43  2  0
 20  2  1  0
 43 21  1  0
 16  7  1  0
 42 29  1  0
 40 35  1  0
M  END
$$$$
