
     RDKit          3D

 24 26  0  0  0  0  0  0  0  0999 V2000
  -10.6438   43.9156  -19.6962 F   0  0  0  0  0  0  0  0  0  0  0  0
  -10.9359   45.0517  -18.9654 C   0  0  0  0  0  0  0  0  0  0  0  0
  -11.1072   46.1446  -19.8007 F   0  0  0  0  0  0  0  0  0  0  0  0
   -9.8591   45.2828  -18.1085 F   0  0  0  0  0  0  0  0  0  0  0  0
  -12.1461   44.8921  -18.2370 O   0  0  0  0  0  0  0  0  0  0  0  0
  -13.3231   44.5019  -18.8262 C   0  0  0  0  0  0  0  0  0  0  0  0
  -13.5304   43.1726  -19.1095 C   0  0  0  0  0  0  0  0  0  0  0  0
  -14.7025   42.7263  -19.7045 C   0  0  0  0  0  0  0  0  0  0  0  0
  -15.7006   43.6296  -20.0284 C   0  0  0  0  0  0  0  0  0  0  0  0
  -16.9390   43.1815  -20.6520 C   0  0  0  0  0  0  0  0  0  0  0  0
  -17.6055   44.0205  -21.5289 C   0  0  0  0  0  0  0  0  0  0  0  0
  -18.7759   43.6255  -22.1304 C   0  0  0  0  0  0  0  0  0  0  0  0
  -19.2516   42.3751  -21.8275 C   0  0  0  0  0  0  0  0  0  0  0  0
  -20.3648   41.7557  -22.2767 N   0  0  0  0  0  0  0  0  0  0  0  0
  -20.3827   40.5884  -21.7021 N   0  0  0  0  0  0  0  0  0  0  0  0
  -19.3140   40.4333  -20.8941 C   0  0  0  0  0  0  0  0  0  0  0  0
  -19.0630   39.2069  -20.1058 C   0  0  0  0  0  0  0  0  0  0  0  0
  -17.8198   38.6840  -20.3667 F   0  0  0  0  0  0  0  0  0  0  0  0
  -19.9893   38.2327  -20.2947 F   0  0  0  0  0  0  0  0  0  0  0  0
  -19.0612   39.5917  -18.7638 F   0  0  0  0  0  0  0  0  0  0  0  0
  -18.5970   41.5692  -20.9754 N   0  0  0  0  0  0  0  0  0  0  0  0
  -17.4492   41.9320  -20.3732 C   0  0  0  0  0  0  0  0  0  0  0  0
  -15.4804   44.9723  -19.7374 C   0  0  0  0  0  0  0  0  0  0  0  0
  -14.3140   45.4026  -19.1472 C   0  0  0  0  0  0  0  0  0  0  0  0
  1  2  1  0
  2  3  1  0
  2  4  1  0
  2  5  1  0
  5  6  1  0
  6  7  2  0
  7  8  1  0
  8  9  2  0
  9 10  1  0
 10 11  1  0
 11 12  2  0
 12 13  1  0
 13 14  2  0
 14 15  1  0
 15 16  2  0
 16 17  1  0
 17 18  1  0
 17 19  1  0
 17 20  1  0
 16 21  1  0
 21 22  1  0
  9 23  1  0
 23 24  2  0
 24  6  1  0
 22 10  2  0
 21 13  1  0
M  END
$$$$
