
     RDKit          3D

 18 20  0  0  0  0  0  0  0  0999 V2000
  -18.9322   32.3354  -24.6922 C   0  0  0  0  0  0  0  0  0  0  0  0
  -18.8957   33.7273  -24.7761 O   0  0  0  0  0  0  0  0  0  0  0  0
  -19.3343   34.5558  -23.7584 C   0  0  0  0  0  0  0  0  0  0  0  0
  -20.3154   34.0479  -22.8956 C   0  0  0  0  0  0  0  0  0  0  0  0
  -20.7782   34.8397  -21.8724 C   0  0  0  0  0  0  0  0  0  0  0  0
  -20.2765   36.1237  -21.7026 C   0  0  0  0  0  0  0  0  0  0  0  0
  -19.3106   36.6436  -22.5400 C   0  0  0  0  0  0  0  0  0  0  0  0
  -18.8548   35.8295  -23.5678 C   0  0  0  0  0  0  0  0  0  0  0  0
  -18.9633   38.0187  -22.1383 C   0  0  0  0  0  0  0  0  0  0  0  0
  -18.0472   38.7685  -22.7277 C   0  0  0  0  0  0  0  0  0  0  0  0
  -17.9259   40.1738  -22.4227 C   0  0  0  0  0  0  0  0  0  0  0  0
  -18.8331   40.9305  -21.6953 C   0  0  0  0  0  0  0  0  0  0  0  0
  -18.3021   42.1557  -21.6206 N   0  0  0  0  0  0  0  0  0  0  0  0
  -17.1101   42.1581  -22.2775 C   0  0  0  0  0  0  0  0  0  0  0  0
  -16.8777   40.9347  -22.7717 N   0  0  0  0  0  0  0  0  0  0  0  0
  -19.7921   38.3088  -20.9808 C   0  0  0  0  0  0  0  0  0  0  0  0
  -19.8037   39.3891  -20.3225 O   0  0  0  0  0  0  0  0  0  0  0  0
  -20.5752   37.1488  -20.7400 N   0  0  0  0  0  0  0  0  0  0  0  0
  1  2  1  0
  2  3  1  0
  3  4  2  0
  4  5  1  0
  5  6  2  0
  6  7  1  0
  7  8  2  0
  7  9  1  0
  9 10  2  0
 10 11  1  0
 11 12  2  0
 12 13  1  0
 13 14  2  0
 14 15  1  0
  9 16  1  0
 16 17  2  0
 16 18  1  0
  8  3  1  0
 15 11  1  0
 18  6  1  0
M  END
$$$$
