
     RDKit          3D

 39 43  0  0  0  0  0  0  0  0999 V2000
  -14.4363   43.6619  -18.3380 C   0  0  0  0  0  0  0  0  0  0  0  0
  -15.2395   42.9878  -19.2850 O   0  0  0  0  0  0  0  0  0  0  0  0
  -16.4924   43.4709  -19.6415 C   0  0  0  0  0  0  0  0  0  0  0  0
  -16.6197   44.8310  -19.8302 C   0  0  0  0  0  0  0  0  0  0  0  0
  -17.8076   45.3954  -20.1805 C   0  0  0  0  0  0  0  0  0  0  0  0
  -17.9613   46.8253  -20.3860 C   0  0  0  0  0  0  0  0  0  0  0  0
  -16.9163   47.5497  -20.5225 O   0  0  0  0  0  0  0  0  0  0  0  0
  -19.2029   47.4830  -20.4478 N   0  0  0  0  0  0  0  0  0  0  0  0
  -19.2786   48.9035  -20.7731 C   0  0  0  0  0  0  0  0  0  0  0  0
  -18.7292   49.7832  -19.6975 C   0  0  0  0  0  0  0  0  0  0  0  0
  -19.6438   50.9686  -19.4600 C   0  0  0  0  0  0  0  0  0  0  0  0
  -20.0295   51.5631  -20.7247 N   0  0  0  0  0  0  0  0  0  0  0  0
  -20.8153   52.7525  -20.5111 C   0  0  0  0  0  0  0  0  0  0  0  0
  -20.7660   50.6547  -21.5757 C   0  0  0  0  0  0  0  0  0  0  0  0
  -20.7372   49.2564  -20.9908 C   0  0  0  0  0  0  0  0  0  0  0  0
  -18.8935   44.5475  -20.3420 C   0  0  0  0  0  0  0  0  0  0  0  0
  -18.7611   43.1814  -20.1517 C   0  0  0  0  0  0  0  0  0  0  0  0
  -17.5762   42.5948  -19.7998 C   0  0  0  0  0  0  0  0  0  0  0  0
  -17.3544   41.2427  -19.5893 N   0  0  0  0  0  0  0  0  0  0  0  0
  -18.0882   40.1910  -20.2018 C   0  0  0  0  0  0  0  0  0  0  0  0
  -17.8379   38.9033  -20.0470 N   0  0  0  0  0  0  0  0  0  0  0  0
  -18.4986   37.8759  -20.5987 C   0  0  0  0  0  0  0  0  0  0  0  0
  -19.5522   38.1803  -21.4155 C   0  0  0  0  0  0  0  0  0  0  0  0
  -19.8716   39.5394  -21.6229 C   0  0  0  0  0  0  0  0  0  0  0  0
  -19.1455   40.4899  -21.0223 N   0  0  0  0  0  0  0  0  0  0  0  0
  -20.9227   40.0623  -22.4208 N   0  0  0  0  0  0  0  0  0  0  0  0
  -20.7017   41.3532  -22.9935 C   0  0  0  0  0  0  0  0  0  0  0  0
  -21.1463   41.4634  -24.4408 C   0  0  0  0  0  0  0  0  0  0  0  0
  -22.2817   42.4695  -24.4266 C   0  0  0  0  0  0  0  0  0  0  0  0
  -22.1025   43.3028  -23.1782 C   0  0  0  0  0  0  0  0  0  0  0  0
  -21.1677   42.5446  -22.2616 C   0  0  0  0  0  0  0  0  0  0  0  0
  -22.1887   39.4074  -22.6812 C   0  0  0  0  0  0  0  0  0  0  0  0
  -22.0021   38.1861  -23.5565 C   0  0  0  0  0  0  0  0  0  0  0  0
  -21.2227   38.4782  -24.6682 F   0  0  0  0  0  0  0  0  0  0  0  0
  -23.2567   37.8087  -24.0042 F   0  0  0  0  0  0  0  0  0  0  0  0
  -21.3569   37.0684  -22.8465 C   0  0  0  0  0  0  0  0  0  0  0  0
  -21.8290   35.8893  -23.0071 O   0  0  0  0  0  0  0  0  0  0  0  0
  -20.2401   37.0700  -21.9688 N   0  0  0  0  0  0  0  0  0  0  0  0
  -19.7120   35.7893  -21.5600 C   0  0  0  0  0  0  0  0  0  0  0  0
  1  2  1  0
  2  3  1  0
  3  4  2  0
  4  5  1  0
  5  6  1  0
  6  7  2  0
  6  8  1  0
  8  9  1  0
  9 10  1  0
 10 11  1  0
 11 12  1  0
 12 13  1  0
 12 14  1  0
 14 15  1  0
  5 16  2  0
 16 17  1  0
 17 18  2  0
 18 19  1  0
 19 20  1  0
 20 21  2  0
 21 22  1  0
 22 23  2  0
 23 24  1  0
 24 25  2  0
 24 26  1  0
 26 27  1  0
 27 28  1  0
 28 29  1  0
 29 30  1  0
 30 31  1  0
 26 32  1  0
 32 33  1  0
 33 34  1  0
 33 35  1  0
 33 36  1  0
 36 37  2  0
 36 38  1  0
 38 39  1  0
 18  3  1  0
 25 20  1  0
 31 27  1  0
 15  9  1  0
 38 23  1  0
M  END
$$$$
