
     RDKit          3D

 17 18  0  0  0  0  0  0  0  0999 V2000
  -25.7232   23.4875  -34.4227 C   0  0  0  0  0  0  0  0  0  0  0  0
  -25.3825   24.0285  -35.8013 C   0  0  0  0  0  0  0  0  0  0  0  0
  -25.7536   22.9254  -36.8232 C   0  0  0  0  0  0  0  0  0  0  0  0
  -23.9889   24.2555  -35.9680 N   0  0  0  0  0  0  0  0  0  0  0  0
  -23.4685   25.3508  -36.3539 C   0  0  0  0  0  0  0  0  0  0  0  0
  -22.0260   25.3459  -36.4497 N   0  0  0  0  0  0  0  0  0  0  0  0
  -24.2174   26.5139  -36.6759 N   0  0  0  0  0  0  0  0  0  0  0  0
  -25.5062   26.3722  -36.5435 C   0  0  0  0  0  0  0  0  0  0  0  0
  -26.3848   27.4740  -36.8371 N   0  0  0  0  0  0  0  0  0  0  0  0
  -26.1458   25.1940  -36.1230 N   0  0  0  0  0  0  0  0  0  0  0  0
  -27.5815   25.1545  -36.0133 C   0  0  0  0  0  0  0  0  0  0  0  0
  -28.1435   25.6748  -34.8538 C   0  0  0  0  0  0  0  0  0  0  0  0
  -29.5018   25.6858  -34.6493 C   0  0  0  0  0  0  0  0  0  0  0  0
  -30.3126   25.1661  -35.6238 C   0  0  0  0  0  0  0  0  0  0  0  0
  -29.7830   24.6432  -36.7845 C   0  0  0  0  0  0  0  0  0  0  0  0
  -30.8117   23.9709  -38.0479 Cl  0  0  0  0  0  0  0  0  0  0  0  0
  -28.4164   24.6494  -36.9542 C   0  0  0  0  0  0  0  0  0  0  0  0
  1  2  1  0
  2  3  1  0
  2  4  1  0
  4  5  2  0
  5  6  1  0
  5  7  1  0
  7  8  2  0
  8  9  1  0
  8 10  1  0
 10 11  1  0
 11 12  2  0
 12 13  1  0
 13 14  2  0
 14 15  1  0
 15 16  1  0
 15 17  2  0
 10  2  1  0
 17 11  1  0
M  END
$$$$
