
     RDKit          3D

 30 33  0  0  0  0  0  0  0  0999 V2000
  -32.9923   12.3878  -20.4985 O   0  0  0  0  0  0  0  0  0  0  0  0
  -31.8111   12.1762  -20.1335 C   0  0  0  0  0  0  0  0  0  0  0  0
  -31.6137   11.5189  -18.9532 C   0  0  0  0  0  0  0  0  0  0  0  0
  -32.7432   11.0796  -18.1475 C   0  0  0  0  0  0  0  0  0  0  0  0
  -33.6028   10.1088  -18.6256 C   0  0  0  0  0  0  0  0  0  0  0  0
  -34.6888    9.6704  -17.8783 C   0  0  0  0  0  0  0  0  0  0  0  0
  -34.9481   10.1900  -16.6297 C   0  0  0  0  0  0  0  0  0  0  0  0
  -36.0166    9.7899  -15.8409 O   0  0  0  0  0  0  0  0  0  0  0  0
  -34.1014   11.1555  -16.1429 C   0  0  0  0  0  0  0  0  0  0  0  0
  -33.0274   11.5812  -16.8951 C   0  0  0  0  0  0  0  0  0  0  0  0
  -30.2955   11.2887  -18.5568 C   0  0  0  0  0  0  0  0  0  0  0  0
  -29.2865   11.6905  -19.2934 O   0  0  0  0  0  0  0  0  0  0  0  0
  -29.4314   12.3229  -20.4295 C   0  0  0  0  0  0  0  0  0  0  0  0
  -28.3210   12.7316  -21.1800 C   0  0  0  0  0  0  0  0  0  0  0  0
  -28.4753   13.3967  -22.3750 C   0  0  0  0  0  0  0  0  0  0  0  0
  -27.4298   13.8205  -23.1517 O   0  0  0  0  0  0  0  0  0  0  0  0
  -26.1766   14.2783  -22.7236 C   0  0  2  0  0  0  0  0  0  0  0  0
  -26.2919   15.6490  -22.5061 O   0  0  0  0  0  0  0  0  0  0  0  0
  -25.0917   16.2369  -22.1561 C   0  0  2  0  0  0  0  0  0  0  0  0
  -25.3487   17.6910  -21.8448 C   0  0  0  0  0  0  0  0  0  0  0  0
  -25.3223   18.4692  -22.9983 O   0  0  0  0  0  0  0  0  0  0  0  0
  -24.1282   16.1992  -23.3439 C   0  0  1  0  0  0  0  0  0  0  0  0
  -22.9690   16.8808  -23.0553 O   0  0  0  0  0  0  0  0  0  0  0  0
  -23.8687   14.7092  -23.6013 C   0  0  2  0  0  0  0  0  0  0  0  0
  -23.0852   14.5336  -24.7397 O   0  0  0  0  0  0  0  0  0  0  0  0
  -25.2191   14.0947  -23.8911 C   0  0  1  0  0  0  0  0  0  0  0  0
  -25.0305   12.7714  -24.2074 O   0  0  0  0  0  0  0  0  0  0  0  0
  -29.7815   13.6353  -22.7868 C   0  0  0  0  0  0  0  0  0  0  0  0
  -30.8706   13.2324  -22.0471 C   0  0  0  0  0  0  0  0  0  0  0  0
  -30.7132   12.5759  -20.8676 C   0  0  0  0  0  0  0  0  0  0  0  0
  1  2  2  0
  2  3  1  0
  3  4  1  0
  4  5  2  0
  5  6  1  0
  6  7  2  0
  7  8  1  0
  7  9  1  0
  9 10  2  0
  3 11  2  0
 11 12  1  0
 12 13  1  0
 13 14  2  0
 14 15  1  0
 15 16  1  0
 17 16  1  6
 17 18  1  0
 18 19  1  0
 19 20  1  6
 20 21  1  0
 19 22  1  0
 22 23  1  1
 22 24  1  0
 24 25  1  6
 24 26  1  0
 26 27  1  1
 15 28  2  0
 28 29  1  0
 29 30  2  0
 30  2  1  0
 10  4  1  0
 30 13  1  0
 26 17  1  0
M  END
$$$$
