
     RDKit          3D

 30 34  0  0  0  0  0  0  0  0999 V2000
  -31.0027   13.0328  -18.5589 C   0  0  0  0  0  0  0  0  0  0  0  0
  -31.4700   11.9272  -19.4254 C   0  0  0  0  0  0  0  0  0  0  0  0
  -32.7431   11.4212  -19.2192 C   0  0  0  0  0  0  0  0  0  0  0  0
  -33.1759   10.3889  -20.0303 C   0  0  0  0  0  0  0  0  0  0  0  0
  -32.3466    9.8855  -21.0178 C   0  0  0  0  0  0  0  0  0  0  0  0
  -31.0789   10.4201  -21.1915 C   0  0  0  0  0  0  0  0  0  0  0  0
  -30.6292   11.4503  -20.3923 C   0  0  0  0  0  0  0  0  0  0  0  0
  -29.3149   11.9527  -20.6382 N   0  0  0  0  0  0  0  0  0  0  0  0
  -29.1267   13.0430  -21.3719 C   0  0  0  0  0  0  0  0  0  0  0  0
  -30.2641   13.8001  -21.9942 C   0  0  0  0  0  0  0  0  0  0  0  0
  -29.7256   14.9259  -22.7316 N   0  0  0  0  0  0  0  0  0  0  0  0
  -29.4908   15.0946  -24.0311 C   0  0  0  0  0  0  0  0  0  0  0  0
  -28.9788   16.3363  -24.2684 N   0  0  0  0  0  0  0  0  0  0  0  0
  -28.8809   16.9833  -23.0984 C   0  0  0  0  0  0  0  0  0  0  0  0
  -28.4404   18.2401  -22.7433 C   0  0  0  0  0  0  0  0  0  0  0  0
  -27.9552   19.1699  -23.7014 N   0  0  0  0  0  0  0  0  0  0  0  0
  -28.4735   18.5918  -21.4462 N   0  0  0  0  0  0  0  0  0  0  0  0
  -28.9277   17.7417  -20.4888 C   0  0  0  0  0  0  0  0  0  0  0  0
  -29.3506   16.5228  -20.8663 N   0  0  0  0  0  0  0  0  0  0  0  0
  -29.3471   16.0994  -22.1492 C   0  0  0  0  0  0  0  0  0  0  0  0
  -27.8482   13.4879  -21.5716 N   0  0  0  0  0  0  0  0  0  0  0  0
  -26.8264   12.8145  -21.0246 C   0  0  0  0  0  0  0  0  0  0  0  0
  -25.5486   13.2990  -21.2517 C   0  0  0  0  0  0  0  0  0  0  0  0
  -24.4745   12.6281  -20.7020 C   0  0  0  0  0  0  0  0  0  0  0  0
  -24.6819   11.5089  -19.9504 C   0  0  0  0  0  0  0  0  0  0  0  0
  -25.9380   10.9959  -19.7019 C   0  0  0  0  0  0  0  0  0  0  0  0
  -26.1802    9.7803  -18.8869 C   0  0  0  0  0  0  0  0  0  0  0  0
  -27.0139   11.6767  -20.2585 C   0  0  0  0  0  0  0  0  0  0  0  0
  -28.3087   11.2499  -20.0723 C   0  0  0  0  0  0  0  0  0  0  0  0
  -28.5669   10.2276  -19.3914 O   0  0  0  0  0  0  0  0  0  0  0  0
  1  2  1  0
  2  3  2  0
  3  4  1  0
  4  5  2  0
  5  6  1  0
  6  7  2  0
  7  8  1  0
  8  9  1  0
  9 10  1  0
 10 11  1  0
 11 12  1  0
 12 13  2  0
 13 14  1  0
 14 15  2  0
 15 16  1  0
 15 17  1  0
 17 18  2  0
 18 19  1  0
 19 20  2  0
  9 21  2  0
 21 22  1  0
 22 23  2  0
 23 24  1  0
 24 25  2  0
 25 26  1  0
 26 27  1  0
 26 28  2  0
 28 29  1  0
 29 30  2  0
  7  2  1  0
 29  8  1  0
 20 11  1  0
 28 22  1  0
 20 14  1  0
M  END
$$$$
