
     RDKit          3D

 30 33  0  0  0  0  0  0  0  0999 V2000
  -17.1141   14.0314  -35.5654 C   0  0  0  0  0  0  0  0  0  0  0  0
  -16.9525   15.0678  -34.6602 C   0  0  0  0  0  0  0  0  0  0  0  0
  -16.7611   16.3264  -35.1836 C   0  0  0  0  0  0  0  0  0  0  0  0
  -16.7242   16.5918  -36.5331 C   0  0  0  0  0  0  0  0  0  0  0  0
  -16.4719   17.9587  -37.0988 C   0  0  0  0  0  0  0  0  0  0  0  0
  -17.4738   18.1295  -38.1556 N   0  0  0  0  0  0  0  0  0  0  0  0
  -17.8807   19.5440  -38.0570 C   0  0  0  0  0  0  0  0  0  0  0  0
  -19.0700   19.6206  -37.0825 C   0  0  0  0  0  0  0  0  0  0  0  0
  -20.1693   18.9525  -37.6745 N   0  0  0  0  0  0  0  0  0  0  0  0
  -21.4590   19.2176  -37.1694 C   0  0  0  0  0  0  0  0  0  0  0  0
  -22.0595   17.9740  -36.5599 C   0  0  0  0  0  0  0  0  0  0  0  0
  -21.2803   17.0083  -36.0081 C   0  0  0  0  0  0  0  0  0  0  0  0
  -21.8564   15.8561  -35.4302 C   0  0  0  0  0  0  0  0  0  0  0  0
  -23.2232   15.6901  -35.4154 C   0  0  0  0  0  0  0  0  0  0  0  0
  -23.9930   16.6808  -35.9794 C   0  0  0  0  0  0  0  0  0  0  0  0
  -23.4223   17.8077  -36.5451 C   0  0  0  0  0  0  0  0  0  0  0  0
  -22.4069   19.8189  -38.1284 C   0  0  0  0  0  0  0  0  0  0  0  0
  -22.6748   19.1968  -39.3252 C   0  0  0  0  0  0  0  0  0  0  0  0
  -23.5363   19.8014  -40.2142 C   0  0  0  0  0  0  0  0  0  0  0  0
  -24.1326   21.0122  -39.9279 C   0  0  0  0  0  0  0  0  0  0  0  0
  -23.8574   21.6262  -38.7261 C   0  0  0  0  0  0  0  0  0  0  0  0
  -23.0019   21.0151  -37.8533 C   0  0  0  0  0  0  0  0  0  0  0  0
  -15.0895   18.0978  -37.5939 C   0  0  0  0  0  0  0  0  0  0  0  0
  -14.7029   17.6148  -38.8449 C   0  0  0  0  0  0  0  0  0  0  0  0
  -13.3953   17.7307  -39.3044 C   0  0  0  0  0  0  0  0  0  0  0  0
  -12.4319   18.3245  -38.5435 C   0  0  0  0  0  0  0  0  0  0  0  0
  -12.7824   18.8133  -37.2986 C   0  0  0  0  0  0  0  0  0  0  0  0
  -14.0859   18.6918  -36.8562 C   0  0  0  0  0  0  0  0  0  0  0  0
  -16.8884   15.5480  -37.4162 C   0  0  0  0  0  0  0  0  0  0  0  0
  -17.0838   14.2611  -36.9222 C   0  0  0  0  0  0  0  0  0  0  0  0
  1  2  2  0
  2  3  1  0
  3  4  2  0
  4  5  1  0
  5  6  1  0
  6  7  1  0
  7  8  1  0
  8  9  1  0
  9 10  1  0
 10 11  1  0
 11 12  2  0
 12 13  1  0
 13 14  2  0
 14 15  1  0
 15 16  2  0
 10 17  1  0
 17 18  2  0
 18 19  1  0
 19 20  2  0
 20 21  1  0
 21 22  2  0
  5 23  1  0
 23 24  2  0
 24 25  1  0
 25 26  2  0
 26 27  1  0
 27 28  2  0
  4 29  1  0
 29 30  2  0
 30  1  1  0
 16 11  1  0
 22 17  1  0
 28 23  1  0
M  END
$$$$
