
     RDKit          3D

 14 15  0  0  0  0  0  0  0  0999 V2000
  -11.9676    1.2715  -31.0445 C   0  0  0  0  0  0  0  0  0  0  0  0
  -13.4295    0.8199  -31.1651 C   0  0  2  0  0  0  0  0  0  0  0  0
  -13.5526   -0.0424  -32.2164 O   0  0  0  0  0  0  0  0  0  0  0  0
  -14.7731    0.0651  -32.7997 C   0  0  1  0  0  0  0  0  0  0  0  0
  -14.9350    1.5049  -33.3003 C   0  0  0  0  0  0  0  0  0  0  0  0
  -14.3083    2.3213  -31.7720 S   0  0  0  0  0  0  0  0  0  0  0  0
  -14.8211   -0.8814  -33.9826 C   0  0  0  0  0  0  0  0  0  0  0  0
  -15.5609   -2.0922  -33.6353 N   0  0  0  0  0  0  0  0  0  0  0  0
  -16.9795   -1.8177  -33.4875 C   0  0  0  0  0  0  0  0  0  0  0  0
  -17.1870   -0.5012  -32.7404 C   0  0  0  0  0  0  0  0  0  0  0  0
  -15.9360   -0.2881  -31.9061 C   0  0  0  0  0  0  0  0  0  0  0  0
  -15.6308   -1.6592  -31.2892 C   0  0  0  0  0  0  0  0  0  0  0  0
  -15.1125   -2.6047  -32.3337 C   0  0  0  0  0  0  0  0  0  0  0  0
  -14.3860   -0.0815  -32.3466 Cl  0  0  0  0  0  0  0  0  0  0  0  0
  2  1  1  6
  2  3  1  0
  3  4  1  0
  4  5  1  6
  5  6  1  0
  4  7  1  0
  7  8  1  0
  8  9  1  0
  9 10  1  0
 10 11  1  0
 11 12  1  0
 12 13  1  0
  6  2  1  0
 13  8  1  0
 11  4  1  0
M  END
$$$$
