
     RDKit          3D

 34 38  0  0  0  0  0  0  0  0999 V2000
  -21.6334   41.5903  -28.0705 C   0  0  0  0  0  0  0  0  0  0  0  0
  -20.3788   41.8122  -27.4502 O   0  0  0  0  0  0  0  0  0  0  0  0
  -20.0168   40.9838  -26.3835 C   0  0  0  0  0  0  0  0  0  0  0  0
  -20.8312   39.9097  -26.0820 C   0  0  0  0  0  0  0  0  0  0  0  0
  -20.4769   39.0852  -25.0236 C   0  0  0  0  0  0  0  0  0  0  0  0
  -19.3355   39.3791  -24.3304 C   0  0  0  0  0  0  0  0  0  0  0  0
  -18.9031   38.5459  -23.2114 C   0  0  1  0  0  0  0  0  0  0  0  0
  -17.5282   38.2718  -23.2487 O   0  0  0  0  0  0  0  0  0  0  0  0
  -19.3327   39.0297  -21.8931 C   0  0  0  0  0  0  0  0  0  0  0  0
  -18.5129   39.8709  -21.1585 C   0  0  0  0  0  0  0  0  0  0  0  0
  -18.8739   40.3568  -19.9270 C   0  0  0  0  0  0  0  0  0  0  0  0
  -18.0069   41.2596  -19.1907 C   0  0  0  0  0  0  0  0  0  0  0  0
  -17.1440   40.7459  -18.2551 N   0  0  0  0  0  0  0  0  0  0  0  0
  -16.3261   41.5299  -17.5550 C   0  0  0  0  0  0  0  0  0  0  0  0
  -16.3015   42.8633  -17.7267 N   0  0  0  0  0  0  0  0  0  0  0  0
  -17.1240   43.4413  -18.6323 C   0  0  0  0  0  0  0  0  0  0  0  0
  -17.0968   44.8130  -18.8149 C   0  0  0  0  0  0  0  0  0  0  0  0
  -17.9274   45.3990  -19.7381 C   0  0  0  0  0  0  0  0  0  0  0  0
  -17.9674   46.7940  -19.9835 N   0  0  0  0  0  0  0  0  0  0  0  0
  -19.1740   47.4129  -20.4511 C   0  0  0  0  0  0  0  0  0  0  0  0
  -18.7693   48.5616  -21.3613 C   0  0  0  0  0  0  0  0  0  0  0  0
  -17.9382   49.4785  -20.7791 O   0  0  0  0  0  0  0  0  0  0  0  0
  -17.2592   49.0612  -19.6635 C   0  0  0  0  0  0  0  0  0  0  0  0
  -16.7996   47.6157  -19.7666 C   0  0  0  0  0  0  0  0  0  0  0  0
  -18.7683   44.5533  -20.4535 C   0  0  0  0  0  0  0  0  0  0  0  0
  -18.8203   43.1909  -20.2972 C   0  0  0  0  0  0  0  0  0  0  0  0
  -17.9659   42.6219  -19.3510 C   0  0  0  0  0  0  0  0  0  0  0  0
  -20.1003   39.9794  -19.4252 C   0  0  0  0  0  0  0  0  0  0  0  0
  -20.5481   40.4077  -18.2190 F   0  0  0  0  0  0  0  0  0  0  0  0
  -20.9546   39.1315  -20.1385 C   0  0  0  0  0  0  0  0  0  0  0  0
  -20.5566   38.6539  -21.3912 C   0  0  0  0  0  0  0  0  0  0  0  0
  -21.5734   37.5959  -22.3284 Cl  0  0  0  0  0  0  0  0  0  0  0  0
  -18.5957   40.4340  -24.6774 N   0  0  0  0  0  0  0  0  0  0  0  0
  -18.9250   41.2095  -25.6697 N   0  0  0  0  0  0  0  0  0  0  0  0
  1  2  1  0
  2  3  1  0
  3  4  2  0
  4  5  1  0
  5  6  2  0
  6  7  1  0
  7  8  1  1
  7  9  1  0
  9 10  2  0
 10 11  1  0
 11 12  1  0
 12 13  2  0
 13 14  1  0
 14 15  2  0
 15 16  1  0
 16 17  2  0
 17 18  1  0
 18 19  1  0
 19 20  1  0
 20 21  1  0
 21 22  1  0
 22 23  1  0
 23 24  1  0
 18 25  2  0
 25 26  1  0
 26 27  2  0
 11 28  2  0
 28 29  1  0
 28 30  1  0
 30 31  2  0
 31 32  1  0
  6 33  1  0
 33 34  2  0
 34  3  1  0
 31  9  1  0
 27 12  1  0
 27 16  1  0
 24 19  1  0
M  END
$$$$
