
     RDKit          3D

 26 30  0  0  0  0  0  0  0  0999 V2000
  -17.4289   47.8264  -22.0741 O   0  0  0  0  0  0  0  0  0  0  0  0
  -17.1339   46.5901  -21.5453 C   0  0  0  0  0  0  0  0  0  0  0  0
  -16.0996   46.5021  -20.6380 C   0  0  0  0  0  0  0  0  0  0  0  0
  -15.7634   45.2811  -20.0771 C   0  0  0  0  0  0  0  0  0  0  0  0
  -16.4979   44.1904  -20.4643 C   0  0  0  0  0  0  0  0  0  0  0  0
  -17.5380   44.2417  -21.3685 C   0  0  0  0  0  0  0  0  0  0  0  0
  -18.2844   43.0257  -21.7379 C   0  0  0  0  0  0  0  0  0  0  0  0
  -19.2813   43.0635  -22.6338 N   0  0  0  0  0  0  0  0  0  0  0  0
  -19.9862   41.9574  -22.9930 C   0  0  0  0  0  0  0  0  0  0  0  0
  -21.0340   42.0620  -23.9503 N   0  0  0  0  0  0  0  0  0  0  0  0
  -21.2076   43.2325  -24.7877 C   0  0  0  0  0  0  0  0  0  0  0  0
  -22.6663   43.5798  -24.9133 C   0  0  0  0  0  0  0  0  0  0  0  0
  -23.4263   42.4743  -25.2337 O   0  0  0  0  0  0  0  0  0  0  0  0
  -23.3933   41.5047  -24.2370 C   0  0  0  0  0  0  0  0  0  0  0  0
  -21.9639   40.9681  -24.1017 C   0  0  0  0  0  0  0  0  0  0  0  0
  -19.6791   40.7394  -22.4249 C   0  0  0  0  0  0  0  0  0  0  0  0
  -20.1675   39.5198  -22.5639 O   0  0  0  0  0  0  0  0  0  0  0  0
  -19.5301   38.6742  -21.7921 C   0  0  0  0  0  0  0  0  0  0  0  0
  -19.6532   37.3378  -21.5779 N   0  0  0  0  0  0  0  0  0  0  0  0
  -18.8529   36.6908  -20.7092 C   0  0  0  0  0  0  0  0  0  0  0  0
  -17.8879   37.3569  -20.0121 C   0  0  0  0  0  0  0  0  0  0  0  0
  -17.7597   38.7192  -20.2280 C   0  0  0  0  0  0  0  0  0  0  0  0
  -18.5694   39.3913  -21.1111 C   0  0  0  0  0  0  0  0  0  0  0  0
  -18.6416   40.7057  -21.4937 C   0  0  0  0  0  0  0  0  0  0  0  0
  -17.9822   41.8396  -21.1818 N   0  0  0  0  0  0  0  0  0  0  0  0
  -17.8433   45.4658  -21.9034 C   0  0  0  0  0  0  0  0  0  0  0  0
  1  2  1  0
  2  3  2  0
  3  4  1  0
  4  5  2  0
  5  6  1  0
  6  7  1  0
  7  8  2  0
  8  9  1  0
  9 10  1  0
 10 11  1  0
 11 12  1  0
 12 13  1  0
 13 14  1  0
 14 15  1  0
  9 16  2  0
 16 17  1  0
 17 18  1  0
 18 19  2  0
 19 20  1  0
 20 21  2  0
 21 22  1  0
 22 23  2  0
 23 24  1  0
 24 25  2  0
  6 26  2  0
 26  2  1  0
 25  7  1  0
 15 10  1  0
 24 16  1  0
 23 18  1  0
M  END
$$$$
