
     RDKit          3D

 46 52  0  0  0  0  0  0  0  0999 V2000
  -17.2519   20.6990  -37.7462 O   0  0  0  0  0  0  0  0  0  0  0  0
  -16.8387   19.6669  -38.3531 C   0  0  0  0  0  0  0  0  0  0  0  0
  -17.0941   19.5835  -39.7161 N   0  0  0  0  0  0  0  0  0  0  0  0
  -18.3348   19.2092  -40.3520 C   0  0  0  0  0  0  0  0  0  0  0  0
  -19.1947   20.3641  -40.7786 C   0  0  0  0  0  0  0  0  0  0  0  0
  -19.4275   20.5934  -42.1397 C   0  0  0  0  0  0  0  0  0  0  0  0
  -20.1970   21.6445  -42.5895 C   0  0  0  0  0  0  0  0  0  0  0  0
  -20.7727   22.5203  -41.6883 C   0  0  0  0  0  0  0  0  0  0  0  0
  -20.5568   22.3127  -40.3553 C   0  0  0  0  0  0  0  0  0  0  0  0
  -19.7757   21.2447  -39.9180 C   0  0  0  0  0  0  0  0  0  0  0  0
  -19.0476   18.0078  -39.8466 C   0  0  0  0  0  0  0  0  0  0  0  0
  -18.4481   17.9709  -41.2317 C   0  0  0  0  0  0  0  0  0  0  0  0
  -16.1256   18.6811  -37.5346 C   0  0  0  0  0  0  0  0  0  0  0  0
  -16.5970   18.3607  -36.2503 C   0  0  0  0  0  0  0  0  0  0  0  0
  -17.8001   19.0949  -35.8088 C   0  0  0  0  0  0  0  0  0  0  0  0
  -18.9330   18.6714  -36.6457 N   0  0  0  0  0  0  0  0  0  0  0  0
  -19.9365   19.6698  -36.6606 C   0  0  0  0  0  0  0  0  0  0  0  0
  -21.2357   19.1827  -35.9929 C   0  0  0  0  0  0  0  0  0  0  0  0
  -21.6567   17.9857  -36.8320 C   0  0  0  0  0  0  0  0  0  0  0  0
  -23.0074   17.5952  -36.5929 N   0  0  0  0  0  0  0  0  0  0  0  0
  -23.9885   18.6001  -36.8703 C   0  0  0  0  0  0  0  0  0  0  0  0
  -25.3297   17.8736  -37.0393 C   0  0  0  0  0  0  0  0  0  0  0  0
  -25.6220   17.2065  -35.7035 C   0  0  0  0  0  0  0  0  0  0  0  0
  -24.5011   16.2912  -35.2711 C   0  0  0  0  0  0  0  0  0  0  0  0
  -23.2008   17.0929  -35.2686 C   0  0  0  0  0  0  0  0  0  0  0  0
  -20.6457   16.8957  -36.7116 C   0  0  0  0  0  0  0  0  0  0  0  0
  -19.3610   17.3958  -36.0993 C   0  0  0  0  0  0  0  0  0  0  0  0
  -15.9804   17.4411  -35.4480 C   0  0  0  0  0  0  0  0  0  0  0  0
  -16.4673   17.0770  -34.1155 C   0  0  0  0  0  0  0  0  0  0  0  0
  -16.0946   17.7835  -32.9994 C   0  0  0  0  0  0  0  0  0  0  0  0
  -16.5469   17.4253  -31.7395 C   0  0  0  0  0  0  0  0  0  0  0  0
  -17.3933   16.3379  -31.5721 C   0  0  0  0  0  0  0  0  0  0  0  0
  -17.7727   15.6244  -32.6832 C   0  0  0  0  0  0  0  0  0  0  0  0
  -18.6902   14.4422  -32.5262 C   0  0  0  0  0  0  0  0  0  0  0  0
  -18.1294   13.3746  -33.2198 F   0  0  0  0  0  0  0  0  0  0  0  0
  -19.8770   14.7645  -33.1387 F   0  0  0  0  0  0  0  0  0  0  0  0
  -18.8193   14.1335  -31.2013 F   0  0  0  0  0  0  0  0  0  0  0  0
  -17.3094   16.0001  -33.9240 C   0  0  0  0  0  0  0  0  0  0  0  0
  -14.8585   16.8162  -35.9208 N   0  0  0  0  0  0  0  0  0  0  0  0
  -14.3936   17.1081  -37.1446 C   0  0  0  0  0  0  0  0  0  0  0  0
  -13.2584   16.4343  -37.6120 C   0  0  0  0  0  0  0  0  0  0  0  0
  -12.7117   16.6344  -38.8541 C   0  0  0  0  0  0  0  0  0  0  0  0
  -11.1590   15.6891  -39.4444 Br  0  0  0  0  0  0  0  0  0  0  0  0
  -13.3503   17.5578  -39.6491 C   0  0  0  0  0  0  0  0  0  0  0  0
  -14.4681   18.2431  -39.2296 C   0  0  0  0  0  0  0  0  0  0  0  0
  -15.0031   18.0316  -37.9750 C   0  0  0  0  0  0  0  0  0  0  0  0
  1  2  2  0
  2  3  1  0
  3  4  1  0
  4  5  1  0
  5  6  2  0
  6  7  1  0
  7  8  2  0
  8  9  1  0
  9 10  2  0
  4 11  1  0
 11 12  1  0
  2 13  1  0
 13 14  2  0
 14 15  1  0
 15 16  1  0
 16 17  1  0
 17 18  1  0
 18 19  1  0
 19 20  1  0
 20 21  1  0
 21 22  1  0
 22 23  1  0
 23 24  1  0
 24 25  1  0
 19 26  1  0
 26 27  1  0
 14 28  1  0
 28 29  1  0
 29 30  2  0
 30 31  1  0
 31 32  2  0
 32 33  1  0
 33 34  1  0
 34 35  1  0
 34 36  1  0
 34 37  1  0
 33 38  2  0
 28 39  2  0
 39 40  1  0
 40 41  2  0
 41 42  1  0
 42 43  1  0
 42 44  2  0
 44 45  1  0
 45 46  2  0
 12  4  1  0
 46 13  1  0
 10  5  1  0
 27 16  1  0
 38 29  1  0
 46 40  1  0
 25 20  1  0
M  END
$$$$
