
     RDKit          3D

 24 26  0  0  0  0  0  0  0  0999 V2000
  -16.9398   42.1687  -18.0960 O   0  0  0  0  0  0  0  0  0  0  0  0
  -15.9888   42.9640  -18.7455 C   0  0  0  0  0  0  0  0  0  0  0  0
  -16.7406   43.7492  -19.7916 C   0  0  0  0  0  0  0  0  0  0  0  0
  -16.8243   45.0745  -19.8539 C   0  0  0  0  0  0  0  0  0  0  0  0
  -17.6547   45.4917  -21.0279 C   0  0  1  0  0  0  0  0  0  0  0  0
  -16.7931   45.5490  -22.1205 O   0  0  0  0  0  0  0  0  0  0  0  0
  -18.5463   44.2568  -21.1812 C   0  0  2  0  0  0  0  0  0  0  0  0
  -19.5741   44.2002  -20.1431 C   0  0  0  0  0  0  0  0  0  0  0  0
  -19.9136   43.0554  -19.5947 C   0  0  0  0  0  0  0  0  0  0  0  0
  -19.3244   41.8783  -19.9708 O   0  0  0  0  0  0  0  0  0  0  0  0
  -18.1148   41.8469  -20.6708 C   0  0  1  0  0  0  0  0  0  0  0  0
  -18.1865   41.0494  -21.8154 O   0  0  0  0  0  0  0  0  0  0  0  0
  -19.0072   39.9539  -21.6987 C   0  0  2  0  0  0  0  0  0  0  0  0
  -18.2461   38.7915  -21.6504 O   0  0  0  0  0  0  0  0  0  0  0  0
  -19.0321   37.6651  -21.6111 C   0  0  2  0  0  0  0  0  0  0  0  0
  -18.1824   36.4386  -21.3650 C   0  0  0  0  0  0  0  0  0  0  0  0
  -17.2171   36.2440  -22.3195 O   0  0  0  0  0  0  0  0  0  0  0  0
  -19.6423   37.4914  -22.9915 C   0  0  1  0  0  0  0  0  0  0  0  0
  -20.2769   36.2820  -23.1157 O   0  0  0  0  0  0  0  0  0  0  0  0
  -20.5345   38.6676  -23.2417 C   0  0  2  0  0  0  0  0  0  0  0  0
  -20.9127   38.6352  -24.5983 O   0  0  0  0  0  0  0  0  0  0  0  0
  -19.9842   39.9843  -22.8376 C   0  0  1  0  0  0  0  0  0  0  0  0
  -21.0115   40.8812  -22.4615 O   0  0  0  0  0  0  0  0  0  0  0  0
  -17.5029   43.1773  -20.9317 C   0  0  2  0  0  0  0  0  0  0  0  0
  1  2  1  0
  2  3  1  0
  3  4  2  0
  4  5  1  0
  5  6  1  6
  5  7  1  0
  7  8  1  1
  8  9  2  0
  9 10  1  0
 10 11  1  0
 11 12  1  6
 13 12  1  6
 13 14  1  0
 14 15  1  0
 15 16  1  6
 16 17  1  0
 15 18  1  0
 18 19  1  1
 18 20  1  0
 20 21  1  6
 20 22  1  0
 22 23  1  1
 11 24  1  0
 24  3  1  1
 24  7  1  0
 22 13  1  0
M  END
$$$$
