
     RDKit          3D

 21 23  0  0  0  0  0  0  0  0999 V2000
  -21.6417   25.0033  -43.9181 C   0  0  0  0  0  0  0  0  0  0  0  0
  -21.1490   24.9534  -42.5673 O   0  0  0  0  0  0  0  0  0  0  0  0
  -22.0871   24.7906  -41.5209 C   0  0  0  0  0  0  0  0  0  0  0  0
  -23.2746   24.6497  -41.8673 O   0  0  0  0  0  0  0  0  0  0  0  0
  -21.6978   24.7889  -40.1734 N   0  0  0  0  0  0  0  0  0  0  0  0
  -22.6229   24.6248  -39.1203 C   0  0  0  0  0  0  0  0  0  0  0  0
  -22.3559   24.6837  -37.7830 N   0  0  0  0  0  0  0  0  0  0  0  0
  -23.4609   24.4692  -37.0765 C   0  0  0  0  0  0  0  0  0  0  0  0
  -23.7856   24.4161  -35.7395 C   0  0  0  0  0  0  0  0  0  0  0  0
  -25.0910   24.1622  -35.3119 C   0  0  0  0  0  0  0  0  0  0  0  0
  -26.1046   23.9547  -36.1947 C   0  0  0  0  0  0  0  0  0  0  0  0
  -27.4821   23.6670  -35.8864 C   0  0  0  0  0  0  0  0  0  0  0  0
  -27.7467   22.9489  -34.8632 O   0  0  0  0  0  0  0  0  0  0  0  0
  -28.6359   24.1225  -36.6361 C   0  0  0  0  0  0  0  0  0  0  0  0
  -28.7656   25.0948  -37.5619 C   0  0  0  0  0  0  0  0  0  0  0  0
  -29.9479   25.3331  -38.1298 C   0  0  0  0  0  0  0  0  0  0  0  0
  -31.0216   24.5133  -37.6990 C   0  0  0  0  0  0  0  0  0  0  0  0
  -30.2854   23.4566  -36.5139 S   0  0  0  0  0  0  0  0  0  0  0  0
  -25.7478   24.0159  -37.5537 C   0  0  0  0  0  0  0  0  0  0  0  0
  -24.4716   24.2634  -37.9680 C   0  0  0  0  0  0  0  0  0  0  0  0
  -23.9299   24.3643  -39.2029 N   0  0  0  0  0  0  0  0  0  0  0  0
  1  2  1  0
  2  3  1  0
  3  4  2  0
  3  5  1  0
  5  6  1  0
  6  7  2  0
  7  8  1  0
  8  9  2  0
  9 10  1  0
 10 11  2  0
 11 12  1  0
 12 13  2  0
 12 14  1  0
 14 15  2  0
 15 16  1  0
 16 17  2  0
 17 18  1  0
 11 19  1  0
 19 20  2  0
 20 21  1  0
 21  6  1  0
 20  8  1  0
 18 14  1  0
M  END
$$$$
