
     RDKit          3D

 26 27  0  0  0  0  0  0  0  0999 V2000
  -13.5891   16.6763  -40.7765 C   0  0  0  0  0  0  0  0  0  0  0  0
  -14.7974   17.3897  -40.2606 C   0  0  0  0  0  0  0  0  0  0  0  0
  -15.7525   17.7671  -41.0756 C   0  0  0  0  0  0  0  0  0  0  0  0
  -15.6151   17.4748  -42.5195 C   0  0  0  0  0  0  0  0  0  0  0  0
  -16.9723   18.4839  -40.6111 C   0  0  0  0  0  0  0  0  0  0  0  0
  -17.8248   18.8038  -41.4878 O   0  0  0  0  0  0  0  0  0  0  0  0
  -17.1330   18.7863  -39.2096 C   0  0  0  0  0  0  0  0  0  0  0  0
  -18.3079   19.4304  -38.6491 C   0  0  0  0  0  0  0  0  0  0  0  0
  -18.5325   20.8240  -39.3003 C   0  0  0  0  0  0  0  0  0  0  0  0
  -19.5631   21.5672  -38.4375 C   0  0  0  0  0  0  0  0  0  0  0  0
  -19.9531   22.8805  -39.0632 C   0  0  0  0  0  0  0  0  0  0  0  0
  -21.1676   22.6876  -39.9179 C   0  0  0  0  0  0  0  0  0  0  0  0
  -21.8641   23.9741  -40.2490 C   0  0  0  0  0  0  0  0  0  0  0  0
  -20.9878   24.8624  -41.0822 C   0  0  0  0  0  0  0  0  0  0  0  0
  -20.3231   24.4028  -42.0168 O   0  0  0  0  0  0  0  0  0  0  0  0
  -20.9387   26.2219  -40.7829 O   0  0  0  0  0  0  0  0  0  0  0  0
  -19.5798   18.6938  -38.6207 C   0  0  0  0  0  0  0  0  0  0  0  0
  -20.3184   18.6194  -39.8135 C   0  0  0  0  0  0  0  0  0  0  0  0
  -21.5099   17.9761  -39.9022 C   0  0  0  0  0  0  0  0  0  0  0  0
  -22.0400   17.3608  -38.7829 C   0  0  0  0  0  0  0  0  0  0  0  0
  -21.3644   17.4015  -37.5916 C   0  0  0  0  0  0  0  0  0  0  0  0
  -20.1338   18.0751  -37.5353 C   0  0  0  0  0  0  0  0  0  0  0  0
  -16.1350   18.3919  -38.3729 C   0  0  0  0  0  0  0  0  0  0  0  0
  -16.3260   18.7182  -36.9342 C   0  0  0  0  0  0  0  0  0  0  0  0
  -14.9519   17.6922  -38.8478 C   0  0  0  0  0  0  0  0  0  0  0  0
  -14.0828   17.3662  -38.0017 O   0  0  0  0  0  0  0  0  0  0  0  0
  1  2  1  0
  2  3  2  0
  3  4  1  0
  3  5  1  0
  5  6  2  0
  5  7  1  0
  7  8  1  0
  8  9  1  0
  9 10  1  0
 10 11  1  0
 11 12  1  0
 12 13  1  0
 13 14  1  0
 14 15  2  0
 14 16  1  0
  8 17  1  0
 17 18  2  0
 18 19  1  0
 19 20  2  0
 20 21  1  0
 21 22  2  0
  7 23  2  0
 23 24  1  0
 23 25  1  0
 25 26  2  0
 25  2  1  0
 22 17  1  0
M  END
$$$$
