
     RDKit          3D

 14 14  0  0  0  0  0  0  0  0999 V2000
  -17.3444   40.5820  -23.6781 N   0  0  0  0  0  0  0  0  0  0  0  0
  -18.2705   39.4922  -23.3180 C   0  0  0  0  0  0  0  0  0  0  0  0
  -17.7335   38.8004  -22.0980 C   0  0  0  0  0  0  0  0  0  0  0  0
  -18.4093   37.5009  -21.8790 C   0  0  0  0  0  0  0  0  0  0  0  0
  -19.4185   37.3813  -20.9492 C   0  0  0  0  0  0  0  0  0  0  0  0
  -20.0656   36.1683  -20.7429 C   0  0  0  0  0  0  0  0  0  0  0  0
  -19.7056   35.0431  -21.4754 C   0  0  0  0  0  0  0  0  0  0  0  0
  -20.3411   33.8190  -21.2841 O   0  0  0  0  0  0  0  0  0  0  0  0
  -18.6902   35.2154  -22.3932 C   0  0  0  0  0  0  0  0  0  0  0  0
  -18.2947   34.1129  -23.1520 O   0  0  0  0  0  0  0  0  0  0  0  0
  -18.0315   36.4032  -22.6193 C   0  0  0  0  0  0  0  0  0  0  0  0
  -19.6178   40.0416  -23.1781 C   0  0  0  0  0  0  0  0  0  0  0  0
  -20.2546   39.9006  -22.1093 O   0  0  0  0  0  0  0  0  0  0  0  0
  -20.2222   40.7286  -24.2147 O   0  0  0  0  0  0  0  0  0  0  0  0
  1  2  1  0
  2  3  1  0
  3  4  1  0
  4  5  2  0
  5  6  1  0
  6  7  2  0
  7  8  1  0
  7  9  1  0
  9 10  1  0
  9 11  2  0
  2 12  1  0
 12 13  2  0
 12 14  1  0
 11  4  1  0
M  END
$$$$
