
     RDKit          3D

 24 25  0  0  0  0  0  0  0  0999 V2000
  -17.4208   47.7719  -22.2555 C   0  0  0  0  0  0  0  0  0  0  0  0
  -17.7907   46.4618  -21.6391 C   0  0  0  0  0  0  0  0  0  0  0  0
  -17.3556   45.3742  -22.1219 O   0  0  0  0  0  0  0  0  0  0  0  0
  -18.6340   46.4207  -20.5055 N   0  0  0  0  0  0  0  0  0  0  0  0
  -18.8123   45.1160  -19.8872 C   0  0  0  0  0  0  0  0  0  0  0  0
  -18.9666   44.6203  -18.8879 N   0  0  0  0  0  0  0  0  0  0  0  0
  -19.1102   43.3276  -18.5664 C   0  0  0  0  0  0  0  0  0  0  0  0
  -19.3187   42.8345  -17.1477 C   0  0  0  0  0  0  0  0  0  0  0  0
  -19.0619   42.4816  -19.6099 C   0  0  0  0  0  0  0  0  0  0  0  0
  -19.1650   41.0281  -19.8173 C   0  0  0  0  0  0  0  0  0  0  0  0
  -19.9706   40.2239  -19.0782 C   0  0  0  0  0  0  0  0  0  0  0  0
  -20.0343   38.8610  -19.3258 C   0  0  0  0  0  0  0  0  0  0  0  0
  -19.2849   38.3198  -20.3158 C   0  0  0  0  0  0  0  0  0  0  0  0
  -19.3738   36.6087  -20.6160 Cl  0  0  0  0  0  0  0  0  0  0  0  0
  -18.4435   39.1214  -21.0956 C   0  0  0  0  0  0  0  0  0  0  0  0
  -17.5646   38.3246  -22.3570 S   0  0  0  0  0  6  0  0  0  0  0  0
  -16.2065   38.9942  -22.5499 O   0  0  0  0  0  0  0  0  0  0  0  0
  -17.2937   36.8840  -21.9273 O   0  0  0  0  0  0  0  0  0  0  0  0
  -18.3521   38.2475  -23.8619 N   0  0  0  0  0  0  0  0  0  0  0  0
  -19.6569   37.6892  -23.8109 C   0  0  0  0  0  0  0  0  0  0  0  0
  -20.2775   37.7533  -25.2082 C   0  0  0  0  0  0  0  0  0  0  0  0
  -20.5754   36.4666  -25.6464 O   0  0  0  0  0  0  0  0  0  0  0  0
  -18.3966   40.4454  -20.8395 C   0  0  0  0  0  0  0  0  0  0  0  0
  -18.8060   43.6224  -21.0370 S   0  0  0  0  0  0  0  0  0  0  0  0
  1  2  1  0
  2  3  2  0
  2  4  1  0
  4  5  1  0
  5  6  2  0
  6  7  1  0
  7  8  1  0
  7  9  2  0
  9 10  1  0
 10 11  2  0
 11 12  1  0
 12 13  2  0
 13 14  1  0
 13 15  1  0
 15 16  1  0
 16 17  2  0
 16 18  2  0
 16 19  1  0
 19 20  1  0
 20 21  1  0
 21 22  1  0
 15 23  2  0
  9 24  1  0
 24  5  1  0
 23 10  1  0
M  END
$$$$
