
     RDKit          3D

 20 21  0  0  0  0  0  0  0  0999 V2000
  -19.0442   35.9084  -21.5286 N   0  0  0  0  0  0  0  0  0  0  0  0
  -17.7527   36.9323  -21.0626 S   0  0  0  0  0  6  0  0  0  0  0  0
  -17.4884   36.8090  -19.5917 O   0  0  0  0  0  0  0  0  0  0  0  0
  -16.5094   36.4790  -21.7775 O   0  0  0  0  0  0  0  0  0  0  0  0
  -18.0579   38.6029  -21.4339 C   0  0  0  0  0  0  0  0  0  0  0  0
  -18.1887   39.4865  -20.3791 C   0  0  0  0  0  0  0  0  0  0  0  0
  -18.4333   40.8369  -20.5844 C   0  0  0  0  0  0  0  0  0  0  0  0
  -18.5507   41.3210  -21.8777 C   0  0  0  0  0  0  0  0  0  0  0  0
  -18.7998   42.7492  -22.1659 C   0  0  0  0  0  0  0  0  0  0  0  0
  -17.6326   43.5603  -22.2717 N   0  0  0  0  0  0  0  0  0  0  0  0
  -17.1930   44.5072  -21.3096 C   0  0  0  0  0  0  0  0  0  0  0  0
  -17.8531   44.6945  -20.2727 O   0  0  0  0  0  0  0  0  0  0  0  0
  -15.9253   45.2563  -21.5908 C   0  0  0  0  0  0  0  0  0  0  0  0
  -15.0371   45.3743  -20.4868 C   0  0  0  0  0  0  0  0  0  0  0  0
  -15.0494   44.9161  -19.1598 C   0  0  0  0  0  0  0  0  0  0  0  0
  -14.0464   45.2010  -18.3458 C   0  0  0  0  0  0  0  0  0  0  0  0
  -12.9834   45.9398  -18.7677 C   0  0  0  0  0  0  0  0  0  0  0  0
  -13.4329   46.2873  -20.5304 S   0  0  0  0  0  0  0  0  0  0  0  0
  -18.4211   40.4465  -22.9300 C   0  0  0  0  0  0  0  0  0  0  0  0
  -18.1769   39.0992  -22.7090 C   0  0  0  0  0  0  0  0  0  0  0  0
  1  2  1  0
  2  3  2  0
  2  4  2  0
  2  5  1  0
  5  6  2  0
  6  7  1  0
  7  8  2  0
  8  9  1  0
  9 10  1  0
 10 11  1  0
 11 12  2  0
 11 13  1  0
 13 14  1  0
 14 15  2  0
 15 16  1  0
 16 17  2  0
 17 18  1  0
  8 19  1  0
 19 20  2  0
 20  5  1  0
 18 14  1  0
M  END
$$$$
