
     RDKit          3D

 20 24  0  0  0  0  0  0  0  0999 V2000
  -44.1150    3.3487  -34.2905 C   0  0  0  0  0  0  0  0  0  0  0  0
  -43.3480    3.3346  -35.5519 C   0  0  0  0  0  0  0  0  0  0  0  0
  -44.0536    4.1970  -36.5639 C   0  0  0  0  0  0  0  0  0  0  0  0
  -43.5901    5.6139  -36.3439 C   0  0  0  0  0  0  0  0  0  0  0  0
  -43.1334    6.4224  -37.3133 N   0  0  0  0  0  0  0  0  0  0  0  0
  -42.8129    7.5790  -36.7723 N   0  0  0  0  0  0  0  0  0  0  0  0
  -43.0507    7.5677  -35.4208 C   0  0  0  0  0  0  0  0  0  0  0  0
  -42.7959    8.6617  -34.4726 C   0  0  0  0  0  0  0  0  0  0  0  0
  -41.3301    8.7734  -34.0904 C   0  0  0  0  0  0  0  0  0  0  0  0
  -41.0298   10.0888  -33.4369 C   0  0  0  0  0  0  0  0  0  0  0  0
  -41.8431   10.1102  -32.1350 C   0  0  0  0  0  0  0  0  0  0  0  0
  -43.2934    9.9782  -32.4806 C   0  0  0  0  0  0  0  0  0  0  0  0
  -43.6887   11.2290  -33.2369 C   0  0  0  0  0  0  0  0  0  0  0  0
  -42.8943   11.1919  -34.5245 C   0  0  0  0  0  0  0  0  0  0  0  0
  -41.4297   11.2736  -34.2606 C   0  0  0  0  0  0  0  0  0  0  0  0
  -43.1949    9.9425  -35.2591 C   0  0  0  0  0  0  0  0  0  0  0  0
  -43.6229    8.7160  -33.2519 C   0  0  0  0  0  0  0  0  0  0  0  0
  -43.5311    6.3346  -35.1922 N   0  0  0  0  0  0  0  0  0  0  0  0
  -43.9151    5.8352  -33.8896 C   0  0  0  0  0  0  0  0  0  0  0  0
  -44.8277    4.6229  -33.9727 C   0  0  0  0  0  0  0  0  0  0  0  0
  1  2  1  0
  2  3  1  0
  3  4  1  0
  4  5  2  0
  5  6  1  0
  6  7  2  0
  7  8  1  0
  8  9  1  0
  9 10  1  0
 10 11  1  0
 11 12  1  0
 12 13  1  0
 13 14  1  0
 14 15  1  0
 14 16  1  0
 12 17  1  0
  7 18  1  0
 18 19  1  0
 19 20  1  0
 20  1  1  0
 18  4  1  0
 16  8  1  0
 17  8  1  0
 15 10  1  0
M  END
$$$$
