
     RDKit          3D

 17 19  0  0  0  0  0  0  0  0999 V2000
  -17.8534   42.5392  -19.5864 O   0  0  0  0  0  0  0  0  0  0  0  0
  -18.2131   41.5911  -20.3283 C   0  0  0  0  0  0  0  0  0  0  0  0
  -17.5108   41.2503  -21.4037 N   0  0  0  0  0  0  0  0  0  0  0  0
  -17.9091   40.2184  -22.2045 C   0  0  0  0  0  0  0  0  0  0  0  0
  -16.9658   39.9005  -23.4946 S   0  0  0  0  0  0  0  0  0  0  0  0
  -19.0169   39.5144  -21.9378 N   0  0  0  0  0  0  0  0  0  0  0  0
  -19.4393   38.4242  -22.7765 C   0  0  0  0  0  0  0  0  0  0  0  0
  -18.6569   37.1548  -22.5065 C   0  0  1  0  0  0  0  0  0  0  0  0
  -19.0489   36.5593  -21.1793 C   0  0  0  0  0  0  0  0  0  0  0  0
  -19.4645   35.1272  -21.4940 C   0  0  0  0  0  0  0  0  0  0  0  0
  -19.7754   35.2506  -22.9623 C   0  0  0  0  0  0  0  0  0  0  0  0
  -18.9622   36.2242  -23.4727 O   0  0  0  0  0  0  0  0  0  0  0  0
  -19.7431   39.8396  -20.8573 C   0  0  0  0  0  0  0  0  0  0  0  0
  -20.8731   39.3556  -20.3159 N   0  0  0  0  0  0  0  0  0  0  0  0
  -21.2018   40.0429  -19.2050 C   0  0  0  0  0  0  0  0  0  0  0  0
  -20.2674   40.9893  -19.0238 N   0  0  0  0  0  0  0  0  0  0  0  0
  -19.3618   40.8911  -20.0174 C   0  0  0  0  0  0  0  0  0  0  0  0
  1  2  2  0
  2  3  1  0
  3  4  1  0
  4  5  2  0
  4  6  1  0
  6  7  1  0
  8  7  1  6
  8  9  1  0
  9 10  1  0
 10 11  1  0
 11 12  1  0
  6 13  1  0
 13 14  1  0
 14 15  1  0
 15 16  2  0
 16 17  1  0
 17  2  1  0
 12  8  1  0
 17 13  2  0
M  END
$$$$
