
     RDKit          3D

 17 18  0  0  0  0  0  0  0  0999 V2000
  -16.6377   37.2922  -22.0386 N   0  0  0  0  0  0  0  0  0  0  0  0
  -18.2271   36.8026  -21.6198 S   0  0  0  0  0  6  0  0  0  0  0  0
  -18.2244   35.7154  -20.5723 O   0  0  0  0  0  0  0  0  0  0  0  0
  -18.8425   36.1975  -22.8471 O   0  0  0  0  0  0  0  0  0  0  0  0
  -19.2026   38.1570  -21.1208 C   0  0  0  0  0  0  0  0  0  0  0  0
  -18.5786   39.2757  -20.6343 C   0  0  0  0  0  0  0  0  0  0  0  0
  -19.3352   40.3787  -20.2263 C   0  0  0  0  0  0  0  0  0  0  0  0
  -20.7089   40.3688  -20.3021 C   0  0  0  0  0  0  0  0  0  0  0  0
  -21.3202   39.2278  -20.7971 C   0  0  0  0  0  0  0  0  0  0  0  0
  -20.5928   38.1297  -21.2046 C   0  0  0  0  0  0  0  0  0  0  0  0
  -21.3513   36.6810  -21.8322 Cl  0  0  0  0  0  0  0  0  0  0  0  0
  -21.4718   41.4999  -19.8817 N   0  0  0  0  0  0  0  0  0  0  0  0
  -20.9974   42.3275  -18.8012 C   0  0  0  0  0  0  0  0  0  0  0  0
  -19.7426   42.9274  -19.1286 N   0  0  0  0  0  0  0  0  0  0  0  0
  -18.5465   41.8052  -19.6084 S   0  0  0  0  0  6  0  0  0  0  0  0
  -17.6140   41.4895  -18.4739 O   0  0  0  0  0  0  0  0  0  0  0  0
  -17.7241   42.4341  -20.6957 O   0  0  0  0  0  0  0  0  0  0  0  0
  1  2  1  0
  2  3  2  0
  2  4  2  0
  2  5  1  0
  5  6  2  0
  6  7  1  0
  7  8  2  0
  8  9  1  0
  9 10  2  0
 10 11  1  0
  8 12  1  0
 12 13  1  0
 13 14  1  0
 14 15  1  0
 15 16  2  0
 15 17  2  0
 10  5  1  0
 15  7  1  0
M  END
$$$$
