
     RDKit          3D

 17 18  0  0  0  0  0  0  0  0999 V2000
  -16.2082   41.3396  -17.6857 F   0  0  0  0  0  0  0  0  0  0  0  0
  -16.3581   42.4753  -18.4524 C   0  0  0  0  0  0  0  0  0  0  0  0
  -15.1810   42.8595  -19.0641 F   0  0  0  0  0  0  0  0  0  0  0  0
  -16.7900   43.5486  -17.6814 F   0  0  0  0  0  0  0  0  0  0  0  0
  -17.3509   42.2028  -19.4989 C   0  0  0  0  0  0  0  0  0  0  0  0
  -17.3061   42.7985  -20.7336 C   0  0  0  0  0  0  0  0  0  0  0  0
  -18.2819   42.4809  -21.6527 C   0  0  0  0  0  0  0  0  0  0  0  0
  -19.2994   41.5924  -21.3873 C   0  0  0  0  0  0  0  0  0  0  0  0
  -20.3035   41.2799  -22.3801 N   0  0  0  0  0  0  0  0  0  0  0  0
  -21.5678   40.7615  -21.9775 C   0  0  0  0  0  0  0  0  0  0  0  0
  -22.6161   41.0392  -23.0077 C   0  0  0  0  0  0  0  0  0  0  0  0
  -22.1484   40.9851  -24.3610 N   0  0  0  0  0  0  0  0  0  0  0  0
  -21.1312   42.0419  -24.4805 C   0  0  0  0  0  0  0  0  0  0  0  0
  -19.9240   41.5180  -23.7416 C   0  0  0  0  0  0  0  0  0  0  0  0
  -19.3100   41.0289  -20.1665 N   0  0  0  0  0  0  0  0  0  0  0  0
  -18.3751   41.3160  -19.2477 C   0  0  0  0  0  0  0  0  0  0  0  0
  -18.4766   40.5226  -17.6725 Cl  0  0  0  0  0  0  0  0  0  0  0  0
  1  2  1  0
  2  3  1  0
  2  4  1  0
  2  5  1  0
  5  6  2  0
  6  7  1  0
  7  8  2  0
  8  9  1  0
  9 10  1  0
 10 11  1  0
 11 12  1  0
 12 13  1  0
 13 14  1  0
  8 15  1  0
 15 16  2  0
 16 17  1  0
 16  5  1  0
 14  9  1  0
M  END
$$$$
