
     RDKit          3D

 46 53  0  0  0  0  0  0  0  0999 V2000
  -12.4308   42.9910  -19.8198 C   0  0  0  0  0  0  0  0  0  0  0  0
  -12.6394   43.4432  -18.4978 O   0  0  0  0  0  0  0  0  0  0  0  0
  -13.9028   43.8254  -18.0750 C   0  0  0  0  0  0  0  0  0  0  0  0
  -14.9426   43.7548  -18.9761 C   0  0  0  0  0  0  0  0  0  0  0  0
  -16.2369   44.1138  -18.6485 C   0  0  0  0  0  0  0  0  0  0  0  0
  -17.3910   44.0645  -19.5528 C   0  0  2  0  0  0  0  0  0  0  0  0
  -17.7227   42.6729  -20.0135 C   0  0  0  0  0  0  0  0  0  0  0  0
  -17.6255   41.6478  -19.0818 C   0  0  0  0  0  0  0  0  0  0  0  0
  -17.9206   40.3325  -19.4187 C   0  0  0  0  0  0  0  0  0  0  0  0
  -18.3158   40.0579  -20.7069 C   0  0  0  0  0  0  0  0  0  0  0  0
  -18.4096   41.0963  -21.6346 C   0  0  0  0  0  0  0  0  0  0  0  0
  -18.1178   42.3895  -21.2976 C   0  0  0  0  0  0  0  0  0  0  0  0
  -18.2142   43.4767  -22.2986 C   0  0  1  0  0  0  0  0  0  0  0  0
  -19.4222   44.1719  -22.1097 O   0  0  0  0  0  0  0  0  0  0  0  0
  -20.4170   43.7465  -22.9893 C   0  0  2  0  0  0  0  0  0  0  0  0
  -20.0208   43.9374  -24.2928 O   0  0  0  0  0  0  0  0  0  0  0  0
  -21.1122   43.9766  -25.1473 C   0  0  2  0  0  0  0  0  0  0  0  0
  -20.7409   43.8322  -26.5953 C   0  0  0  0  0  0  0  0  0  0  0  0
  -21.8792   44.1112  -27.3481 O   0  0  0  0  0  0  0  0  0  0  0  0
  -22.3163   45.4171  -27.1535 C   0  0  1  0  0  0  0  0  0  0  0  0
  -23.3107   45.8540  -28.0940 C   0  0  0  0  0  0  0  0  0  0  0  0
  -24.3620   45.2681  -28.7213 C   0  0  0  0  0  0  0  0  0  0  0  0
  -25.1400   45.9316  -29.5691 C   0  0  0  0  0  0  0  0  0  0  0  0
  -24.8207   47.3021  -29.7958 C   0  0  0  0  0  0  0  0  0  0  0  0
  -23.4021   47.5761  -28.7687 S   0  0  0  0  0  0  0  0  0  0  0  0
  -22.8154   45.5171  -25.8617 O   0  0  0  0  0  0  0  0  0  0  0  0
  -21.7517   45.3391  -24.9780 C   0  0  1  0  0  0  0  0  0  0  0  0
  -22.1386   45.4922  -23.5464 C   0  0  2  0  0  0  0  0  0  0  0  0
  -21.6967   46.7431  -23.0590 O   0  0  0  0  0  0  0  0  0  0  0  0
  -21.7444   44.3712  -22.6607 C   0  0  1  0  0  0  0  0  0  0  0  0
  -22.7658   43.4189  -22.5915 O   0  0  0  0  0  0  0  0  0  0  0  0
  -17.0441   44.3707  -21.9491 C   0  0  1  0  0  0  0  0  0  0  0  0
  -16.8609   45.5633  -22.8232 C   0  0  0  0  0  0  0  0  0  0  0  0
  -16.0494   46.3778  -21.9547 O   0  0  0  0  0  0  0  0  0  0  0  0
  -16.4037   46.1231  -20.6127 C   0  0  0  0  0  0  0  0  0  0  0  0
  -15.8748   46.7605  -19.6665 O   0  0  0  0  0  0  0  0  0  0  0  0
  -17.4146   45.0598  -20.6492 C   0  0  2  0  0  0  0  0  0  0  0  0
  -18.5380   38.6877  -20.7462 O   0  0  0  0  0  0  0  0  0  0  0  0
  -17.7994   38.0883  -19.6718 C   0  0  0  0  0  0  0  0  0  0  0  0
  -17.9059   39.1285  -18.6875 O   0  0  0  0  0  0  0  0  0  0  0  0
  -16.4031   44.5534  -17.3304 C   0  0  0  0  0  0  0  0  0  0  0  0
  -15.3858   44.6320  -16.4179 C   0  0  0  0  0  0  0  0  0  0  0  0
  -15.6313   45.0832  -15.1135 O   0  0  0  0  0  0  0  0  0  0  0  0
  -16.9452   45.3172  -14.6754 C   0  0  0  0  0  0  0  0  0  0  0  0
  -14.1192   44.2652  -16.7889 C   0  0  0  0  0  0  0  0  0  0  0  0
  -13.0689   44.3386  -15.8722 O   0  0  0  0  0  0  0  0  0  0  0  0
  1  2  1  0
  2  3  1  0
  3  4  2  0
  4  5  1  0
  6  5  1  6
  6  7  1  0
  7  8  2  0
  8  9  1  0
  9 10  2  0
 10 11  1  0
 11 12  2  0
 12 13  1  0
 13 14  1  1
 15 14  1  1
 15 16  1  0
 16 17  1  0
 17 18  1  6
 18 19  1  0
 19 20  1  0
 20 21  1  6
 21 22  2  0
 22 23  1  0
 23 24  2  0
 24 25  1  0
 20 26  1  0
 27 26  1  6
 27 28  1  0
 28 29  1  1
 28 30  1  0
 30 31  1  6
 13 32  1  0
 32 33  1  6
 33 34  1  0
 34 35  1  0
 35 36  2  0
 37 35  1  1
 10 38  1  0
 38 39  1  0
 39 40  1  0
  5 41  2  0
 41 42  1  0
 42 43  1  0
 43 44  1  0
 42 45  2  0
 45 46  1  0
 45  3  1  0
 37  6  1  0
 12  7  1  0
 30 15  1  0
 37 32  1  0
 40  9  1  0
 27 17  1  0
 25 21  1  0
M  END
$$$$
