
     RDKit          3D

 17 18  0  0  0  0  0  0  0  0999 V2000
  -27.3034   16.2194  -23.5079 O   0  0  0  0  0  0  0  0  0  0  0  0
  -26.4380   15.9383  -22.5922 C   0  0  0  0  0  0  0  0  0  0  0  0
  -26.5761   16.7402  -21.4304 N   0  0  0  0  0  0  0  0  0  0  0  0
  -27.1352   17.9731  -21.4403 O   0  0  0  0  0  0  0  0  0  0  0  0
  -25.4547   14.8895  -22.8082 C   0  0  0  0  0  0  0  0  0  0  0  0
  -25.4874   14.2486  -24.1487 C   0  0  0  0  0  0  0  0  0  0  0  0
  -25.2649   14.9306  -25.3261 C   0  0  0  0  0  0  0  0  0  0  0  0
  -25.2881   14.3080  -26.5582 C   0  0  0  0  0  0  0  0  0  0  0  0
  -25.5399   12.9590  -26.6506 C   0  0  0  0  0  0  0  0  0  0  0  0
  -25.7684   12.2394  -25.4950 C   0  0  0  0  0  0  0  0  0  0  0  0
  -25.7381   12.8833  -24.2990 C   0  0  0  0  0  0  0  0  0  0  0  0
  -25.3050   13.8923  -21.7306 C   0  0  0  0  0  0  0  0  0  0  0  0
  -24.0959   13.5767  -21.1629 C   0  0  0  0  0  0  0  0  0  0  0  0
  -23.9787   12.6454  -20.1522 C   0  0  0  0  0  0  0  0  0  0  0  0
  -25.0795   11.9874  -19.6662 C   0  0  0  0  0  0  0  0  0  0  0  0
  -26.3082   12.2890  -20.2230 C   0  0  0  0  0  0  0  0  0  0  0  0
  -26.4055   13.2230  -21.2326 C   0  0  0  0  0  0  0  0  0  0  0  0
  1  2  2  0
  2  3  1  0
  3  4  1  0
  2  5  1  0
  5  6  1  0
  6  7  2  0
  7  8  1  0
  8  9  2  0
  9 10  1  0
 10 11  2  0
  5 12  1  0
 12 13  2  0
 13 14  1  0
 14 15  2  0
 15 16  1  0
 16 17  2  0
 11  6  1  0
 17 12  1  0
M  END
$$$$
