
     RDKit          3D

 23 27  0  0  0  0  0  0  0  0999 V2000
  -18.4580   40.0012  -19.0421 O   0  0  0  0  0  0  0  0  0  0  0  0
  -18.8106   39.5686  -20.1651 C   0  0  0  0  0  0  0  0  0  0  0  0
  -19.2873   38.2589  -20.1919 O   0  0  0  0  0  0  0  0  0  0  0  0
  -18.7136   40.4278  -21.3829 C   0  0  0  0  0  0  0  0  0  0  0  0
  -19.9420   40.3377  -22.2182 C   0  0  0  0  0  0  0  0  0  0  0  0
  -19.8575   39.0054  -22.9967 C   0  0  0  0  0  0  0  0  0  0  0  0
  -18.6855   39.3176  -23.8610 C   0  0  0  0  0  0  0  0  0  0  0  0
  -18.6563   40.6244  -24.1093 C   0  0  0  0  0  0  0  0  0  0  0  0
  -19.8211   41.2756  -23.4182 C   0  0  0  0  0  0  0  0  0  0  0  0
  -19.5599   42.6474  -22.9861 C   0  0  0  0  0  0  0  0  0  0  0  0
  -20.0004   43.6828  -23.7403 C   0  0  0  0  0  0  0  0  0  0  0  0
  -19.7881   44.9876  -23.3797 C   0  0  0  0  0  0  0  0  0  0  0  0
  -20.3666   46.3009  -24.3699 Cl  0  0  0  0  0  0  0  0  0  0  0  0
  -19.1117   45.2431  -22.2244 C   0  0  0  0  0  0  0  0  0  0  0  0
  -18.6608   44.2125  -21.4526 C   0  0  0  0  0  0  0  0  0  0  0  0
  -18.8740   42.8736  -21.8148 C   0  0  0  0  0  0  0  0  0  0  0  0
  -18.4055   41.7841  -21.0304 N   0  0  0  0  0  0  0  0  0  0  0  0
  -17.5678   42.0640  -19.8374 C   0  0  0  0  0  0  0  0  0  0  0  0
  -16.8391   43.3317  -20.1844 C   0  0  0  0  0  0  0  0  0  0  0  0
  -15.9444   43.8884  -19.1327 C   0  0  0  0  0  0  0  0  0  0  0  0
  -15.9334   45.3217  -19.5407 C   0  0  0  0  0  0  0  0  0  0  0  0
  -17.0713   45.6262  -20.1554 C   0  0  0  0  0  0  0  0  0  0  0  0
  -17.9277   44.4253  -20.2053 C   0  0  0  0  0  0  0  0  0  0  0  0
  1  2  2  0
  2  3  1  0
  2  4  1  0
  4  5  1  0
  5  6  1  0
  6  7  1  0
  7  8  2  0
  8  9  1  0
  9 10  1  0
 10 11  2  0
 11 12  1  0
 12 13  1  0
 12 14  2  0
 14 15  1  0
 15 16  2  0
 16 17  1  0
 17 18  1  0
 18 19  1  0
 19 20  1  0
 20 21  1  0
 21 22  2  0
 22 23  1  0
 17  4  1  0
 23 19  1  0
  9  5  1  0
 16 10  1  0
 23 15  1  0
M  END
$$$$
