
     RDKit          3D

 46 51  0  0  0  0  0  0  0  0999 V2000
  -13.8341   42.8586  -17.7467 C   0  0  0  0  0  0  0  0  0  0  0  0
  -15.0994   43.4525  -18.2782 C   0  0  0  0  0  0  0  0  0  0  0  0
  -15.3537   43.2376  -19.6311 O   0  0  0  0  0  0  0  0  0  0  0  0
  -16.4715   43.5652  -20.3432 C   0  0  0  0  0  0  0  0  0  0  0  0
  -16.8260   44.8823  -20.4680 C   0  0  0  0  0  0  0  0  0  0  0  0
  -17.9298   45.2592  -21.1666 C   0  0  0  0  0  0  0  0  0  0  0  0
  -18.3661   46.6306  -21.3198 C   0  0  0  0  0  0  0  0  0  0  0  0
  -17.7172   47.3121  -22.1909 O   0  0  0  0  0  0  0  0  0  0  0  0
  -19.4164   47.2314  -20.5985 N   0  0  0  0  0  0  0  0  0  0  0  0
  -20.1863   48.3216  -21.1211 C   0  0  0  0  0  0  0  0  0  0  0  0
  -20.8985   49.0121  -19.9753 C   0  0  0  0  0  0  0  0  0  0  0  0
  -20.0683   49.1405  -18.7421 C   0  0  0  0  0  0  0  0  0  0  0  0
  -20.8227   49.8256  -17.7183 N   0  0  0  0  0  0  0  0  0  0  0  0
  -22.1803   49.3163  -17.6368 C   0  0  0  0  0  0  0  0  0  0  0  0
  -22.8723   49.8697  -16.4121 C   0  0  0  0  0  0  0  0  0  0  0  0
  -22.5675   51.2634  -16.2018 N   0  0  0  0  0  0  0  0  0  0  0  0
  -23.8035   51.9328  -15.8202 C   0  0  0  0  0  0  0  0  0  0  0  0
  -22.0797   51.8899  -17.4068 C   0  0  0  0  0  0  0  0  0  0  0  0
  -20.7762   51.2555  -17.8165 C   0  0  0  0  0  0  0  0  0  0  0  0
  -19.5192   47.8212  -18.2541 C   0  0  0  0  0  0  0  0  0  0  0  0
  -19.7344   46.7215  -19.2698 C   0  0  0  0  0  0  0  0  0  0  0  0
  -18.7097   44.2717  -21.7648 C   0  0  0  0  0  0  0  0  0  0  0  0
  -18.3241   42.9322  -21.6207 C   0  0  0  0  0  0  0  0  0  0  0  0
  -17.2188   42.5381  -20.9222 C   0  0  0  0  0  0  0  0  0  0  0  0
  -16.8011   41.2149  -20.7419 N   0  0  0  0  0  0  0  0  0  0  0  0
  -17.5834   40.0530  -20.9537 C   0  0  0  0  0  0  0  0  0  0  0  0
  -17.2764   38.8359  -20.4990 N   0  0  0  0  0  0  0  0  0  0  0  0
  -17.9726   37.7152  -20.6809 C   0  0  0  0  0  0  0  0  0  0  0  0
  -19.1383   37.8199  -21.4188 C   0  0  0  0  0  0  0  0  0  0  0  0
  -19.4662   39.0798  -21.8947 C   0  0  0  0  0  0  0  0  0  0  0  0
  -18.7397   40.1680  -21.6868 N   0  0  0  0  0  0  0  0  0  0  0  0
  -20.6219   39.4056  -22.6959 N   0  0  0  0  0  0  0  0  0  0  0  0
  -20.5304   40.7856  -23.6980 S   0  0  0  0  0  6  0  0  0  0  0  0
  -20.5313   42.3126  -22.8385 C   0  0  0  0  0  0  0  0  0  0  0  0
  -21.3316   40.7375  -24.9473 O   0  0  0  0  0  0  0  0  0  0  0  0
  -19.0816   40.6920  -24.2627 O   0  0  0  0  0  0  0  0  0  0  0  0
  -21.8515   38.7004  -22.7405 C   0  0  0  0  0  0  0  0  0  0  0  0
  -22.9067   39.5405  -23.0123 C   0  0  0  0  0  0  0  0  0  0  0  0
  -24.1606   38.9752  -23.1117 C   0  0  0  0  0  0  0  0  0  0  0  0
  -24.3583   37.6025  -22.9430 C   0  0  0  0  0  0  0  0  0  0  0  0
  -23.3041   36.7690  -22.6698 C   0  0  0  0  0  0  0  0  0  0  0  0
  -22.0584   37.3223  -22.5696 C   0  0  0  0  0  0  0  0  0  0  0  0
  -21.0323   36.3268  -22.2367 C   0  0  0  0  0  0  0  0  0  0  0  0
  -21.2649   35.1454  -22.5827 O   0  0  0  0  0  0  0  0  0  0  0  0
  -19.7931   36.5683  -21.5555 N   0  0  0  0  0  0  0  0  0  0  0  0
  -19.1665   35.4014  -20.9470 C   0  0  0  0  0  0  0  0  0  0  0  0
  1  2  1  0
  2  3  1  0
  3  4  1  0
  4  5  2  0
  5  6  1  0
  6  7  1  0
  7  8  2  0
  7  9  1  0
  9 10  1  0
 10 11  1  0
 11 12  1  0
 12 13  1  0
 13 14  1  0
 14 15  1  0
 15 16  1  0
 16 17  1  0
 16 18  1  0
 18 19  1  0
 12 20  1  0
 20 21  1  0
  6 22  2  0
 22 23  1  0
 23 24  2  0
 24 25  1  0
 25 26  1  0
 26 27  2  0
 27 28  1  0
 28 29  2  0
 29 30  1  0
 30 31  2  0
 30 32  1  0
 32 33  1  0
 33 34  1  0
 33 35  2  0
 33 36  2  0
 32 37  1  0
 37 38  2  0
 38 39  1  0
 39 40  2  0
 40 41  1  0
 41 42  2  0
 42 43  1  0
 43 44  2  0
 43 45  1  0
 45 46  1  0
 24  4  1  0
 31 26  1  0
 42 37  1  0
 21  9  1  0
 45 29  1  0
 19 13  1  0
M  END
$$$$
