
     RDKit          3D

 23 26  0  0  0  0  0  0  0  0999 V2000
  -21.0092   40.3317  -24.4398 C   0  0  0  0  0  0  0  0  0  0  0  0
  -20.0303   39.6674  -23.5687 C   0  0  0  0  0  0  0  0  0  0  0  0
  -19.3560   38.7559  -24.0097 O   0  0  0  0  0  0  0  0  0  0  0  0
  -19.8727   40.1071  -22.1745 C   0  0  1  0  0  0  0  0  0  0  0  0
  -19.3643   39.0280  -21.2401 C   0  0  0  0  0  0  0  0  0  0  0  0
  -18.6516   39.7605  -20.1002 C   0  0  0  0  0  0  0  0  0  0  0  0
  -18.8258   41.1938  -20.4881 C   0  0  1  0  0  0  0  0  0  0  0  0
  -17.9784   42.1827  -19.8265 C   0  0  2  0  0  0  0  0  0  0  0  0
  -18.8680   43.1149  -19.0388 C   0  0  0  0  0  0  0  0  0  0  0  0
  -18.4180   44.2974  -18.6525 C   0  0  0  0  0  0  0  0  0  0  0  0
  -17.0376   44.6673  -19.0127 C   0  0  0  0  0  0  0  0  0  0  0  0
  -16.3116   45.4564  -18.2491 C   0  0  0  0  0  0  0  0  0  0  0  0
  -14.9529   45.8124  -18.6154 C   0  0  0  0  0  0  0  0  0  0  0  0
  -14.4494   46.9006  -18.2632 O   0  0  0  0  0  0  0  0  0  0  0  0
  -14.1756   44.8491  -19.4204 C   0  0  0  0  0  0  0  0  0  0  0  0
  -14.9691   43.7574  -20.0264 C   0  0  0  0  0  0  0  0  0  0  0  0
  -16.4404   44.1489  -20.2510 C   0  0  2  0  0  0  0  0  0  0  0  0
  -16.3792   45.2702  -21.2828 C   0  0  0  0  0  0  0  0  0  0  0  0
  -17.1993   42.9904  -20.8628 C   0  0  2  0  0  0  0  0  0  0  0  0
  -18.1066   43.4714  -21.9669 C   0  0  0  0  0  0  0  0  0  0  0  0
  -19.0144   42.4430  -22.5340 C   0  0  0  0  0  0  0  0  0  0  0  0
  -18.7062   41.1039  -22.0010 C   0  0  2  0  0  0  0  0  0  0  0  0
  -17.4906   40.4285  -22.4897 C   0  0  0  0  0  0  0  0  0  0  0  0
  1  2  1  0
  2  3  2  0
  4  2  1  6
  4  5  1  0
  5  6  1  0
  7  6  1  1
  7  8  1  0
  8  9  1  6
  9 10  2  0
 10 11  1  0
 11 12  2  0
 12 13  1  0
 13 14  2  0
 13 15  1  0
 15 16  1  0
 16 17  1  0
 17 18  1  6
 17 19  1  0
 19 20  1  6
 20 21  1  0
 21 22  1  0
 22 23  1  1
 22  4  1  0
 22  7  1  0
 19  8  1  0
 17 11  1  0
M  END
$$$$
