
     RDKit          3D

 14 15  0  0  0  0  0  0  0  0999 V2000
  -16.3048   38.6645  -23.3556 O   0  0  0  0  0  0  0  0  0  0  0  0
  -17.3492   38.0725  -22.9852 C   0  0  0  0  0  0  0  0  0  0  0  0
  -17.6669   36.8790  -23.6149 O   0  0  0  0  0  0  0  0  0  0  0  0
  -18.1780   38.6426  -21.9294 C   0  0  0  0  0  0  0  0  0  0  0  0
  -19.3499   38.0859  -21.5111 C   0  0  0  0  0  0  0  0  0  0  0  0
  -20.1047   38.6676  -20.5003 C   0  0  0  0  0  0  0  0  0  0  0  0
  -21.2911   38.1372  -20.0507 O   0  0  0  0  0  0  0  0  0  0  0  0
  -19.6595   39.8341  -19.9063 C   0  0  0  0  0  0  0  0  0  0  0  0
  -20.3666   40.4607  -18.8950 C   0  0  0  0  0  0  0  0  0  0  0  0
  -19.8876   41.6336  -18.3207 C   0  0  0  0  0  0  0  0  0  0  0  0
  -18.7005   42.1911  -18.7495 C   0  0  0  0  0  0  0  0  0  0  0  0
  -18.0229   41.5396  -19.7588 C   0  0  0  0  0  0  0  0  0  0  0  0
  -18.4758   40.3781  -20.3433 C   0  0  0  0  0  0  0  0  0  0  0  0
  -17.7673   39.7727  -21.3388 N   0  0  0  0  0  0  0  0  0  0  0  0
  1  2  2  0
  2  3  1  0
  2  4  1  0
  4  5  2  0
  5  6  1  0
  6  7  1  0
  6  8  2  0
  8  9  1  0
  9 10  2  0
 10 11  1  0
 11 12  2  0
 12 13  1  0
 13 14  2  0
 14  4  1  0
 13  8  1  0
M  END
$$$$
