
     RDKit          3D

 21 22  0  0  0  0  0  0  0  0999 V2000
  -19.1620   39.8930  -22.0681 Cl  0  0  0  0  0  0  0  0  0  0  0  0
  -19.2164   34.3849  -20.9428 Cl  0  0  0  0  0  0  0  0  0  0  0  0
  -20.0798   35.7553  -21.6001 C   0  0  0  0  0  0  0  0  0  0  0  0
  -21.4199   35.8982  -21.3240 C   0  0  0  0  0  0  0  0  0  0  0  0
  -22.0825   36.9870  -21.8527 C   0  0  0  0  0  0  0  0  0  0  0  0
  -21.4422   37.8971  -22.6219 C   0  0  0  0  0  0  0  0  0  0  0  0
  -20.0798   37.7404  -22.8933 C   0  0  0  0  0  0  0  0  0  0  0  0
  -19.4408   38.7047  -23.7798 C   0  0  0  0  0  0  0  0  0  0  0  0
  -19.9580   38.9450  -25.0215 N   0  0  0  0  0  0  0  0  0  0  0  0
  -19.2428   39.8880  -25.5893 N   0  0  0  0  0  0  0  0  0  0  0  0
  -18.3085   40.2324  -24.7371 N   0  0  0  0  0  0  0  0  0  0  0  0
  -18.4070   39.5121  -23.5952 N   0  0  0  0  0  0  0  0  0  0  0  0
  -17.5488   39.7455  -22.4312 C   0  0  0  0  0  0  0  0  0  0  0  0
  -18.1566   40.8773  -21.6797 C   0  0  0  0  0  0  0  0  0  0  0  0
  -19.0877   40.6823  -20.6877 C   0  0  0  0  0  0  0  0  0  0  0  0
  -19.6425   41.7572  -19.9991 C   0  0  0  0  0  0  0  0  0  0  0  0
  -19.2524   43.0322  -20.3168 C   0  0  0  0  0  0  0  0  0  0  0  0
  -18.3376   43.2229  -21.2915 N   0  0  0  0  0  0  0  0  0  0  0  0
  -17.7923   42.1667  -21.9685 C   0  0  0  0  0  0  0  0  0  0  0  0
  -19.3876   36.6791  -22.3944 C   0  0  0  0  0  0  0  0  0  0  0  0
  -17.6961   36.3346  -22.7644 Cl  0  0  0  0  0  0  0  0  0  0  0  0
  2  3  1  0
  3  4  2  0
  4  5  1  0
  5  6  2  0
  6  7  1  0
  7  8  1  0
  8  9  2  0
  9 10  1  0
 10 11  2  0
 11 12  1  0
 12 13  1  0
 13 14  1  0
 14 15  2  0
 15 16  1  0
 16 17  2  0
 17 18  1  0
 18 19  2  0
  7 20  2  0
 20 21  1  0
 20  3  1  0
 12  8  1  0
 19 14  1  0
M  END
$$$$
