
     RDKit          3D

  9  7  0  0  0  0  0  0  0  0999 V2000
  -15.4348   17.9584  -41.6437 C   0  0  0  0  0  0  0  0  0  0  0  0
  -15.4128   16.9660  -40.5394 C   0  0  0  0  0  0  0  0  0  0  0  0
  -14.5028   17.4001  -39.4714 N   0  0  0  0  0  0  0  0  0  0  0  0
  -13.1181   17.3888  -39.8100 C   0  0  0  0  0  0  0  0  0  0  0  0
  -12.1612   18.0280  -38.8807 C   0  0  0  0  0  0  0  0  0  0  0  0
  -15.0216   17.7789  -38.2622 C   0  0  0  0  0  0  0  0  0  0  0  0
  -14.1768   18.2010  -36.9509 S   0  0  0  0  0  0  0  0  0  0  0  0
  -16.8359   17.7693  -38.0357 S   0  0  0  0  0  1  0  0  0  0  0  0
  -14.2135   17.6554  -39.8444 Na  0  0  0  0  0 15  0  0  0  0  0  0
  1  2  1  0
  2  3  1  0
  3  4  1  0
  4  5  1  0
  3  6  1  0
  6  7  2  0
  6  8  1  0
M  CHG  2   8  -1   9   1
M  END
$$$$
