
     RDKit          3D

 21 23  0  0  0  0  0  0  0  0999 V2000
  -23.3387   25.8541  -34.7435 C   0  0  0  0  0  0  0  0  0  0  0  0
  -24.3202   25.3640  -35.6931 N   0  0  0  0  0  0  0  0  0  0  0  0
  -25.6640   25.5187  -35.6493 C   0  0  0  0  0  0  0  0  0  0  0  0
  -26.3842   26.2421  -34.5886 C   0  0  0  0  0  0  0  0  0  0  0  0
  -26.8045   25.3369  -33.5847 O   0  0  0  0  0  0  0  0  0  0  0  0
  -26.2231   24.9015  -36.7389 C   0  0  0  0  0  0  0  0  0  0  0  0
  -27.6398   24.8481  -37.0518 C   0  0  0  0  0  0  0  0  0  0  0  0
  -28.3450   23.6505  -37.1446 C   0  0  0  0  0  0  0  0  0  0  0  0
  -29.7011   23.6019  -37.4473 C   0  0  0  0  0  0  0  0  0  0  0  0
  -30.3866   24.7850  -37.6667 C   0  0  0  0  0  0  0  0  0  0  0  0
  -29.7050   25.9686  -37.5782 C   0  0  0  0  0  0  0  0  0  0  0  0
  -28.3787   25.9973  -37.2811 C   0  0  0  0  0  0  0  0  0  0  0  0
  -25.1698   24.3585  -37.4578 C   0  0  0  0  0  0  0  0  0  0  0  0
  -25.1774   23.6349  -38.6317 C   0  0  0  0  0  0  0  0  0  0  0  0
  -23.9673   23.1880  -39.1667 C   0  0  0  0  0  0  0  0  0  0  0  0
  -23.9373   22.4364  -40.3724 N   0  0  0  0  0  4  0  0  0  0  0  0
  -22.8550   22.0340  -40.8676 O   0  0  0  0  0  0  0  0  0  0  0  0
  -25.1134   22.1414  -41.0083 O   0  0  0  0  0  1  0  0  0  0  0  0
  -22.7808   23.4666  -38.5306 C   0  0  0  0  0  0  0  0  0  0  0  0
  -22.8224   24.1953  -37.3574 C   0  0  0  0  0  0  0  0  0  0  0  0
  -23.9913   24.6561  -36.7921 C   0  0  0  0  0  0  0  0  0  0  0  0
  1  2  1  0
  2  3  1  0
  3  4  1  0
  4  5  1  0
  3  6  2  0
  6  7  1  0
  7  8  2  0
  8  9  1  0
  9 10  2  0
 10 11  1  0
 11 12  2  0
  6 13  1  0
 13 14  2  0
 14 15  1  0
 15 16  1  0
 16 17  2  0
 16 18  1  0
 15 19  2  0
 19 20  1  0
 20 21  2  0
 21  2  1  0
 12  7  1  0
 21 13  1  0
M  CHG  2  16   1  18  -1
M  END
$$$$
