
     RDKit          3D

 16 16  0  0  0  0  0  0  0  0999 V2000
  -14.5817   17.5491  -39.7044 Cl  0  0  0  0  0  0  0  0  0  0  0  0
  -17.9941   17.3428  -37.6810 N   0  0  0  0  0  0  0  0  0  0  0  0
  -16.8891   17.2657  -38.5771 C   0  0  0  0  0  0  0  0  0  0  0  0
  -16.7066   18.1986  -39.5740 C   0  0  0  0  0  0  0  0  0  0  0  0
  -15.6315   18.1119  -40.4353 C   0  0  0  0  0  0  0  0  0  0  0  0
  -15.3958   19.3106  -41.7172 Cl  0  0  0  0  0  0  0  0  0  0  0  0
  -14.6949   17.0979  -40.3435 C   0  0  0  0  0  0  0  0  0  0  0  0
  -13.6004   17.0462  -41.2532 N   0  0  0  0  0  0  0  0  0  0  0  0
  -12.3690   17.7121  -40.9454 C   0  0  0  0  0  0  0  0  0  0  0  0
  -12.0864   18.0922  -39.7514 N   0  0  0  0  0  0  0  0  0  0  0  0
  -10.7993   18.7297  -39.7157 C   0  0  0  0  0  0  0  0  0  0  0  0
  -10.5302   19.0765  -41.1608 C   0  0  0  0  0  0  0  0  0  0  0  0
  -11.3088   18.0559  -41.8346 N   0  0  0  0  0  0  0  0  0  0  0  0
  -14.8764   16.1654  -39.3479 C   0  0  0  0  0  0  0  0  0  0  0  0
  -13.7038   14.8723  -39.2115 Cl  0  0  0  0  0  0  0  0  0  0  0  0
  -15.9564   16.2511  -38.4813 C   0  0  0  0  0  0  0  0  0  0  0  0
  2  3  1  0
  3  4  2  0
  4  5  1  0
  5  6  1  0
  5  7  2  0
  7  8  1  0
  8  9  1  0
  9 10  2  0
 10 11  1  0
 11 12  1  0
 12 13  1  0
  7 14  1  0
 14 15  1  0
 14 16  2  0
 16  3  1  0
 13  9  1  0
M  END
$$$$
