
     RDKit          3D

 29 31  0  0  0  0  0  0  0  0999 V2000
  -17.5227   45.6799  -18.4370 C   0  0  0  0  0  0  0  0  0  0  0  0
  -17.7475   44.4851  -19.2468 N   0  0  0  0  0  0  0  0  0  0  0  0
  -17.2806   43.2006  -18.8233 C   0  0  0  0  0  0  0  0  0  0  0  0
  -16.4121   43.1409  -17.9134 O   0  0  0  0  0  0  0  0  0  0  0  0
  -17.8489   41.9955  -19.4840 C   0  0  0  0  0  0  0  0  0  0  0  0
  -17.8051   42.2432  -20.9807 C   0  0  1  0  0  0  0  0  0  0  0  0
  -18.0713   41.0344  -21.7633 C   0  0  0  0  0  0  0  0  0  0  0  0
  -18.4239   41.2105  -22.9750 O   0  0  0  0  0  0  0  0  0  0  0  0
  -17.9765   39.7166  -21.3121 N   0  0  0  0  0  0  0  0  0  0  0  0
  -18.6782   38.5921  -21.9843 C   0  0  1  0  0  0  0  0  0  0  0  0
  -18.2065   37.2969  -21.3539 C   0  0  0  0  0  0  0  0  0  0  0  0
  -18.8732   36.1173  -21.9650 C   0  0  0  0  0  0  0  0  0  0  0  0
  -19.8711   35.3104  -21.4614 C   0  0  0  0  0  0  0  0  0  0  0  0
  -20.1748   34.3463  -22.3724 N   0  0  0  0  0  0  0  0  0  0  0  0
  -19.3854   34.5431  -23.4249 C   0  0  0  0  0  0  0  0  0  0  0  0
  -18.5902   35.6207  -23.1825 N   0  0  0  0  0  0  0  0  0  0  0  0
  -20.1426   38.7980  -21.8286 C   0  0  0  0  0  0  0  0  0  0  0  0
  -20.6232   38.8771  -20.6308 O   0  0  0  0  0  0  0  0  0  0  0  0
  -21.0766   38.9208  -22.8736 N   0  0  0  0  0  0  0  0  0  0  0  0
  -20.6802   38.8458  -24.2969 C   0  0  0  0  0  0  0  0  0  0  0  0
  -21.9374   38.3462  -24.9792 C   0  0  0  0  0  0  0  0  0  0  0  0
  -22.9674   39.2513  -24.2927 C   0  0  0  0  0  0  0  0  0  0  0  0
  -22.5045   39.1004  -22.8348 C   0  0  1  0  0  0  0  0  0  0  0  0
  -23.1851   37.8368  -22.3664 C   0  0  0  0  0  0  0  0  0  0  0  0
  -22.5292   36.6055  -22.6241 N   0  0  0  0  0  0  0  0  0  0  0  0
  -24.2821   37.8947  -21.7770 O   0  0  0  0  0  0  0  0  0  0  0  0
  -18.6478   43.3541  -21.2688 N   0  0  0  0  0  0  0  0  0  0  0  0
  -18.4385   44.5418  -20.4897 C   0  0  0  0  0  0  0  0  0  0  0  0
  -18.8546   45.6675  -20.8732 O   0  0  0  0  0  0  0  0  0  0  0  0
  1  2  1  0
  2  3  1  0
  3  4  2  0
  3  5  1  0
  5  6  1  0
  6  7  1  6
  7  8  2  0
  7  9  1  0
  9 10  1  0
 10 11  1  1
 11 12  1  0
 12 13  2  0
 13 14  1  0
 14 15  2  0
 15 16  1  0
 10 17  1  0
 17 18  2  0
 17 19  1  0
 19 20  1  0
 20 21  1  0
 21 22  1  0
 22 23  1  0
 23 24  1  6
 24 25  1  0
 24 26  2  0
  6 27  1  0
 27 28  1  0
 28 29  2  0
 28  2  1  0
 16 12  1  0
 23 19  1  0
M  END
$$$$
