
     RDKit          3D

 15 15  0  0  0  0  0  0  0  0999 V2000
  -16.5005   15.9402  -30.5605 C   0  0  0  0  0  0  0  0  0  0  0  0
  -16.5413   15.0707  -29.3765 C   0  0  0  0  0  0  0  0  0  0  0  0
  -17.2038   15.3475  -28.3076 N   0  0  0  0  0  0  0  0  0  0  0  0
  -17.0604   14.5864  -27.1473 C   0  0  0  0  0  0  0  0  0  0  0  0
  -16.9582   13.9580  -26.1711 N   0  0  0  0  0  0  0  0  0  0  0  0
  -15.8004   13.8536  -29.4274 N   0  0  0  0  0  0  0  0  0  0  0  0
  -15.1477   13.4918  -30.6560 C   0  0  0  0  0  0  0  0  0  0  0  0
  -15.7651   13.0662  -28.2143 C   0  0  0  0  0  0  0  0  0  0  0  0
  -14.4013   12.7554  -27.7740 C   0  0  0  0  0  0  0  0  0  0  0  0
  -13.8727   11.4824  -27.8211 C   0  0  0  0  0  0  0  0  0  0  0  0
  -12.5892   11.2028  -27.4042 C   0  0  0  0  0  0  0  0  0  0  0  0
  -11.7938   12.2137  -26.9221 C   0  0  0  0  0  0  0  0  0  0  0  0
  -10.1638   11.8483  -26.3946 Cl  0  0  0  0  0  0  0  0  0  0  0  0
  -12.3032   13.4540  -26.8741 N   0  0  0  0  0  0  0  0  0  0  0  0
  -13.5547   13.7284  -27.2803 C   0  0  0  0  0  0  0  0  0  0  0  0
  1  2  1  0
  2  3  2  3
  3  4  1  0
  4  5  3  0
  2  6  1  0
  6  7  1  0
  6  8  1  0
  8  9  1  0
  9 10  2  0
 10 11  1  0
 11 12  2  0
 12 13  1  0
 12 14  1  0
 14 15  2  0
 15  9  1  0
M  END
$$$$
