
     RDKit          3D

 40 45  0  0  0  0  0  0  0  0999 V2000
  -24.1010    8.2638  -18.3138 O   0  0  0  0  0  0  0  0  0  0  0  0
  -24.5851    9.3958  -18.5557 C   0  0  0  0  0  0  0  0  0  0  0  0
  -25.8697    9.4752  -19.0534 C   0  0  0  0  0  0  0  0  0  0  0  0
  -26.3996   10.7079  -19.3178 C   0  0  0  0  0  0  0  0  0  0  0  0
  -27.7432   10.9157  -19.8445 C   0  0  0  0  0  0  0  0  0  0  0  0
  -28.6095    9.8764  -20.0437 C   0  0  0  0  0  0  0  0  0  0  0  0
  -29.8872   10.1367  -20.5521 C   0  0  0  0  0  0  0  0  0  0  0  0
  -30.2961   11.4236  -20.8589 C   0  0  0  0  0  0  0  0  0  0  0  0
  -31.5763   11.6194  -21.3605 O   0  0  0  0  0  0  0  0  0  0  0  0
  -29.4260   12.4757  -20.6598 C   0  0  0  0  0  0  0  0  0  0  0  0
  -29.8347   13.8432  -20.9762 C   0  0  0  0  0  0  0  0  0  0  0  0
  -30.5614   14.6261  -20.1029 C   0  0  0  0  0  0  0  0  0  0  0  0
  -30.8936   14.0296  -18.8723 O   0  0  0  0  0  0  0  0  0  0  0  0
  -30.9480   15.9189  -20.4017 C   0  0  0  0  0  0  0  0  0  0  0  0
  -30.6098   16.4810  -21.6152 C   0  0  0  0  0  0  0  0  0  0  0  0
  -30.9790   17.7814  -21.9579 O   0  0  0  0  0  0  0  0  0  0  0  0
  -29.8844   15.7188  -22.5039 C   0  0  0  0  0  0  0  0  0  0  0  0
  -29.5327   16.2534  -23.7224 C   0  0  0  0  0  0  0  0  0  0  0  0
  -29.8232   17.4090  -24.1074 O   0  0  0  0  0  0  0  0  0  0  0  0
  -28.8028   15.4469  -24.5821 C   0  0  0  0  0  0  0  0  0  0  0  0
  -28.4525   14.1659  -24.2158 C   0  0  0  0  0  0  0  0  0  0  0  0
  -27.6874   13.3123  -25.1098 C   0  0  0  0  0  0  0  0  0  0  0  0
  -26.5716   13.7396  -25.7861 C   0  0  0  0  0  0  0  0  0  0  0  0
  -25.8936   12.8623  -26.6236 C   0  0  0  0  0  0  0  0  0  0  0  0
  -26.2798   11.5694  -26.8192 C   0  0  0  0  0  0  0  0  0  0  0  0
  -25.6049   10.6983  -27.6520 O   0  0  0  0  0  0  0  0  0  0  0  0
  -27.4024   11.1286  -26.1428 C   0  0  0  0  0  0  0  0  0  0  0  0
  -28.0829   11.9901  -25.3094 C   0  0  0  0  0  0  0  0  0  0  0  0
  -28.8121   13.6881  -23.0300 O   0  0  0  0  0  0  0  0  0  0  0  0
  -29.5019   14.4249  -22.1954 C   0  0  0  0  0  0  0  0  0  0  0  0
  -28.1897   12.1923  -20.1641 C   0  0  0  0  0  0  0  0  0  0  0  0
  -25.6623   11.7940  -19.0878 O   0  0  0  0  0  0  0  0  0  0  0  0
  -24.4487   11.7586  -18.6195 C   0  0  0  0  0  0  0  0  0  0  0  0
  -23.7375   12.9378  -18.4041 C   0  0  0  0  0  0  0  0  0  0  0  0
  -22.4545   12.8794  -17.9080 C   0  0  0  0  0  0  0  0  0  0  0  0
  -21.7752   14.0826  -17.7061 O   0  0  0  0  0  0  0  0  0  0  0  0
  -21.8478   11.6730  -17.6154 C   0  0  0  0  0  0  0  0  0  0  0  0
  -22.5617   10.5068  -17.8325 C   0  0  0  0  0  0  0  0  0  0  0  0
  -21.9804    9.2668  -17.5480 O   0  0  0  0  0  0  0  0  0  0  0  0
  -23.8589   10.5450  -18.3330 C   0  0  0  0  0  0  0  0  0  0  0  0
  1  2  2  0
  2  3  1  0
  3  4  2  0
  4  5  1  0
  5  6  2  0
  6  7  1  0
  7  8  2  0
  8  9  1  0
  8 10  1  0
 10 11  1  0
 11 12  2  0
 12 13  1  0
 12 14  1  0
 14 15  2  0
 15 16  1  0
 15 17  1  0
 17 18  1  0
 18 19  2  0
 18 20  1  0
 20 21  2  0
 21 22  1  0
 22 23  2  0
 23 24  1  0
 24 25  2  0
 25 26  1  0
 25 27  1  0
 27 28  2  0
 21 29  1  0
 29 30  1  0
 10 31  2  0
  4 32  1  0
 32 33  1  0
 33 34  2  0
 34 35  1  0
 35 36  1  0
 35 37  2  0
 37 38  1  0
 38 39  1  0
 38 40  2  0
 40  2  1  0
 31  5  1  0
 40 33  1  0
 30 11  1  0
 30 17  2  0
 28 22  1  0
M  END
$$$$
