
     RDKit          3D

 29 32  0  0  0  0  0  0  0  0999 V2000
  -16.9825   45.0607  -21.8578 C   0  0  0  0  0  0  0  0  0  0  0  0
  -17.3084   44.8229  -20.3720 C   0  0  0  0  0  0  0  0  0  0  0  0
  -18.8039   45.0764  -20.1760 C   0  0  0  0  0  0  0  0  0  0  0  0
  -16.5643   45.7489  -19.6638 O   0  0  0  0  0  0  0  0  0  0  0  0
  -15.5937   45.4659  -18.7592 C   0  0  0  0  0  0  0  0  0  0  0  0
  -14.8974   46.3943  -18.0811 N   0  0  0  0  0  0  0  0  0  0  0  0
  -13.9431   46.0370  -17.1938 C   0  0  0  0  0  0  0  0  0  0  0  0
  -13.6674   44.7369  -16.9683 N   0  0  0  0  0  0  0  0  0  0  0  0
  -14.3273   43.7691  -17.6134 C   0  0  0  0  0  0  0  0  0  0  0  0
  -14.0873   42.3916  -17.4229 N   0  0  0  0  0  0  0  0  0  0  0  0
  -15.3055   44.1185  -18.5232 C   0  0  0  0  0  0  0  0  0  0  0  0
  -16.0375   43.1521  -19.2341 N   0  0  0  0  0  0  0  0  0  0  0  0
  -16.9541   43.4401  -20.0827 C   0  0  0  0  0  0  0  0  0  0  0  0
  -17.6084   42.2910  -20.7329 C   0  0  0  0  0  0  0  0  0  0  0  0
  -18.1802   42.4622  -21.9775 C   0  0  0  0  0  0  0  0  0  0  0  0
  -18.8194   41.4470  -22.6656 C   0  0  0  0  0  0  0  0  0  0  0  0
  -18.8682   40.2159  -22.0463 C   0  0  0  0  0  0  0  0  0  0  0  0
  -19.5474   39.0916  -22.7510 C   0  0  1  0  0  0  0  0  0  0  0  0
  -20.0428   38.1396  -21.6555 C   0  0  0  0  0  0  0  0  0  0  0  0
  -20.6506   36.9317  -22.2963 C   0  0  0  0  0  0  0  0  0  0  0  0
  -21.9153   37.3769  -23.0105 C   0  0  2  0  0  0  0  0  0  0  0  0
  -21.9571   36.8309  -24.4288 C   0  0  0  0  0  0  0  0  0  0  0  0
  -22.6528   35.5404  -24.5092 C   0  0  0  0  0  0  0  0  0  0  0  0
  -22.5985   34.8581  -25.5601 O   0  0  0  0  0  0  0  0  0  0  0  0
  -23.3771   35.0486  -23.4425 O   0  0  0  0  0  0  0  0  0  0  0  0
  -22.0208   38.8821  -23.0718 C   0  0  0  0  0  0  0  0  0  0  0  0
  -20.7345   39.5208  -23.5472 C   0  0  0  0  0  0  0  0  0  0  0  0
  -18.3002   40.0392  -20.8056 C   0  0  0  0  0  0  0  0  0  0  0  0
  -17.6533   41.0726  -20.1124 C   0  0  0  0  0  0  0  0  0  0  0  0
  1  2  1  0
  2  3  1  0
  2  4  1  0
  4  5  1  0
  5  6  2  0
  6  7  1  0
  7  8  2  0
  8  9  1  0
  9 10  1  0
  9 11  2  0
 11 12  1  0
 12 13  2  0
 13 14  1  0
 14 15  2  0
 15 16  1  0
 16 17  2  0
 18 17  1  1
 18 19  1  0
 19 20  1  0
 20 21  1  0
 21 22  1  6
 22 23  1  0
 23 24  2  0
 23 25  1  0
 21 26  1  0
 26 27  1  0
 17 28  1  0
 28 29  2  0
 13  2  1  0
 29 14  1  0
 11  5  1  0
 27 18  1  0
M  END
$$$$
