
     RDKit          3D

 16 17  0  0  0  0  0  0  0  0999 V2000
  -25.0825   32.9290  -26.1568 C   0  0  0  0  0  0  0  0  0  0  0  0
  -24.9499   32.7726  -27.6589 C   0  0  0  0  0  0  0  0  0  0  0  0
  -24.1519   31.5897  -28.0271 C   0  0  0  0  0  0  0  0  0  0  0  0
  -22.8680   31.7379  -28.4747 C   0  0  0  0  0  0  0  0  0  0  0  0
  -22.0911   30.6631  -28.8358 C   0  0  0  0  0  0  0  0  0  0  0  0
  -22.6215   29.3913  -28.7447 C   0  0  0  0  0  0  0  0  0  0  0  0
  -23.9159   29.2558  -28.2925 C   0  0  0  0  0  0  0  0  0  0  0  0
  -24.6998   30.3420  -27.9282 C   0  0  0  0  0  0  0  0  0  0  0  0
  -24.5104   33.9983  -28.3317 C   0  0  0  0  0  0  0  0  0  0  0  0
  -23.8128   34.9784  -27.6393 C   0  0  0  0  0  0  0  0  0  0  0  0
  -23.3954   36.1360  -28.2598 C   0  0  0  0  0  0  0  0  0  0  0  0
  -23.6517   36.3719  -29.5944 C   0  0  0  0  0  0  0  0  0  0  0  0
  -23.2353   37.5273  -30.2140 O   0  0  0  0  0  0  0  0  0  0  0  0
  -24.3409   35.4150  -30.2998 C   0  0  0  0  0  0  0  0  0  0  0  0
  -24.7617   34.2408  -29.6608 C   0  0  0  0  0  0  0  0  0  0  0  0
  -25.4617   33.2687  -30.3768 O   0  0  0  0  0  0  0  0  0  0  0  0
  1  2  1  0
  2  3  1  0
  3  4  2  0
  4  5  1  0
  5  6  2  0
  6  7  1  0
  7  8  2  0
  2  9  1  0
  9 10  2  0
 10 11  1  0
 11 12  2  0
 12 13  1  0
 12 14  1  0
 14 15  2  0
 15 16  1  0
  8  3  1  0
 15  9  1  0
M  END
$$$$
