
     RDKit          3D

 28 29  0  0  0  0  0  0  0  0999 V2000
  -17.3286   49.3675  -22.2921 C   0  0  0  0  0  0  0  0  0  0  0  0
  -18.2276   48.2645  -22.7516 C   0  0  0  0  0  0  0  0  0  0  0  0
  -17.8962   47.0026  -22.2222 O   0  0  0  0  0  0  0  0  0  0  0  0
  -18.6679   45.8837  -22.3491 C   0  0  0  0  0  0  0  0  0  0  0  0
  -19.7660   45.9983  -22.9649 O   0  0  0  0  0  0  0  0  0  0  0  0
  -18.2744   44.5810  -21.8066 C   0  0  0  0  0  0  0  0  0  0  0  0
  -17.1435   44.3032  -21.0714 C   0  0  0  0  0  0  0  0  0  0  0  0
  -17.1828   42.9794  -20.7794 N   0  0  0  0  0  0  0  0  0  0  0  0
  -18.2447   42.4109  -21.2723 N   0  0  0  0  0  0  0  0  0  0  0  0
  -18.6575   41.0353  -21.1889 C   0  0  0  0  0  0  0  0  0  0  0  0
  -19.5554   40.6266  -20.2347 C   0  0  0  0  0  0  0  0  0  0  0  0
  -19.9487   39.3277  -20.1518 C   0  0  0  0  0  0  0  0  0  0  0  0
  -19.4387   38.4080  -21.0387 C   0  0  0  0  0  0  0  0  0  0  0  0
  -19.8459   37.0292  -20.9632 N   0  0  0  0  0  0  0  0  0  0  0  0
  -19.5469   36.1713  -22.0539 C   0  0  0  0  0  0  0  0  0  0  0  0
  -18.7513   36.6762  -22.9277 O   0  0  0  0  0  0  0  0  0  0  0  0
  -20.0268   34.8373  -22.2757 C   0  0  0  0  0  0  0  0  0  0  0  0
  -21.2975   34.2906  -21.1274 Cl  0  0  0  0  0  0  0  0  0  0  0  0
  -19.6652   34.0026  -23.1784 C   0  0  0  0  0  0  0  0  0  0  0  0
  -18.5190   34.3052  -24.4337 Cl  0  0  0  0  0  0  0  0  0  0  0  0
  -20.3842   32.3724  -23.1757 Cl  0  0  0  0  0  0  0  0  0  0  0  0
  -18.5344   38.7851  -22.0101 C   0  0  0  0  0  0  0  0  0  0  0  0
  -18.1536   40.1092  -22.0703 C   0  0  0  0  0  0  0  0  0  0  0  0
  -18.9410   43.3807  -21.9152 C   0  0  0  0  0  0  0  0  0  0  0  0
  -20.2449   43.1935  -22.6426 C   0  0  0  0  0  0  0  0  0  0  0  0
  -20.3489   44.0719  -23.6926 F   0  0  0  0  0  0  0  0  0  0  0  0
  -20.3236   41.9044  -23.1326 F   0  0  0  0  0  0  0  0  0  0  0  0
  -21.3180   43.3415  -21.7541 F   0  0  0  0  0  0  0  0  0  0  0  0
  1  2  1  0
  2  3  1  0
  3  4  1  0
  4  5  2  0
  4  6  1  0
  6  7  1  0
  7  8  2  0
  8  9  1  0
  9 10  1  0
 10 11  2  0
 11 12  1  0
 12 13  2  0
 13 14  1  0
 14 15  1  0
 15 16  2  0
 15 17  1  0
 17 18  1  0
 17 19  2  3
 19 20  1  0
 19 21  1  0
 13 22  1  0
 22 23  2  0
  9 24  1  0
 24 25  1  0
 25 26  1  0
 25 27  1  0
 25 28  1  0
 24  6  2  0
 23 10  1  0
M  END
$$$$
