
     RDKit          3D

 23 25  0  0  0  0  0  0  0  0999 V2000
  -21.0993   12.4585  -21.6409 C   0  0  0  0  0  0  0  0  0  0  0  0
  -21.7561   13.0382  -22.7262 O   0  0  0  0  0  0  0  0  0  0  0  0
  -23.1146   13.3765  -22.7069 C   0  0  0  0  0  0  0  0  0  0  0  0
  -23.7567   13.7728  -23.8614 C   0  0  0  0  0  0  0  0  0  0  0  0
  -25.1035   14.1076  -23.8397 C   0  0  0  0  0  0  0  0  0  0  0  0
  -25.8514   14.0612  -22.6848 C   0  0  0  0  0  0  0  0  0  0  0  0
  -27.1908   14.3895  -22.6399 C   0  0  0  0  0  0  0  0  0  0  0  0
  -27.8521   14.8109  -23.8940 C   0  0  0  0  0  0  0  0  0  0  0  0
  -27.9087   14.3381  -21.4977 N   0  0  0  0  0  0  0  0  0  0  0  0
  -27.2600   13.9487  -20.3858 C   0  0  0  0  0  0  0  0  0  0  0  0
  -27.9101   13.8897  -19.2900 N   0  0  0  0  0  0  0  0  0  0  0  0
  -29.2686   13.5455  -19.1691 C   0  0  0  0  0  0  0  0  0  0  0  0
  -29.8236   13.3819  -17.9663 N   0  0  0  0  0  0  0  0  0  0  0  0
  -31.1384   13.0483  -17.8243 C   0  0  0  0  0  0  0  0  0  0  0  0
  -31.5818   12.9135  -16.6580 O   0  0  0  0  0  0  0  0  0  0  0  0
  -31.9031   12.8781  -18.9326 C   0  0  0  0  0  0  0  0  0  0  0  0
  -33.3594   12.5093  -18.8073 C   0  0  0  0  0  0  0  0  0  0  0  0
  -31.3387   13.0451  -20.1805 C   0  0  0  0  0  0  0  0  0  0  0  0
  -32.2095   12.8497  -21.3663 C   0  0  0  0  0  0  0  0  0  0  0  0
  -30.0261   13.3768  -20.2601 N   0  0  0  0  0  0  0  0  0  0  0  0
  -25.9505   13.6214  -20.3983 N   0  0  0  0  0  0  0  0  0  0  0  0
  -25.2180   13.6663  -21.5266 C   0  0  0  0  0  0  0  0  0  0  0  0
  -23.8686   13.3318  -21.5529 C   0  0  0  0  0  0  0  0  0  0  0  0
  1  2  1  0
  2  3  1  0
  3  4  1  0
  4  5  2  0
  5  6  1  0
  6  7  2  0
  7  8  1  0
  7  9  1  0
  9 10  1  0
 10 11  2  0
 11 12  1  0
 12 13  2  0
 13 14  1  0
 14 15  2  0
 14 16  1  0
 16 17  1  0
 16 18  2  0
 18 19  1  0
 18 20  1  0
 10 21  1  0
 21 22  2  0
 22 23  1  0
 23  3  2  0
 22  6  1  0
 20 12  1  0
M  END
$$$$
