
     RDKit          3D

 29 33  0  0  0  0  0  0  0  0999 V2000
  -26.8325   13.6634  -26.7404 C   0  0  0  0  0  0  0  0  0  0  0  0
  -26.8610   14.5346  -25.4772 C   0  0  2  0  0  0  0  0  0  0  0  0
  -25.7753   15.6017  -25.6551 C   0  0  0  0  0  0  0  0  0  0  0  0
  -24.5389   15.0143  -25.7430 O   0  0  0  0  0  0  0  0  0  0  0  0
  -24.1800   14.2848  -24.6084 C   0  0  0  0  0  0  0  0  0  0  0  0
  -25.1701   13.1574  -24.3546 C   0  0  0  0  0  0  0  0  0  0  0  0
  -26.4754   13.7711  -24.3214 N   0  0  0  0  0  0  0  0  0  0  0  0
  -27.3046   13.6277  -23.1956 C   0  0  0  0  0  0  0  0  0  0  0  0
  -28.6515   13.9851  -23.2670 C   0  0  0  0  0  0  0  0  0  0  0  0
  -29.4885   13.8707  -22.1847 C   0  0  0  0  0  0  0  0  0  0  0  0
  -30.9143   14.2521  -22.2690 C   0  0  0  0  0  0  0  0  0  0  0  0
  -31.3922   14.8849  -23.8739 S   0  0  0  0  0  6  0  0  0  0  0  0
  -31.7231   16.6237  -23.7927 C   0  0  0  0  0  0  0  0  0  0  0  0
  -30.2445   14.6093  -24.8235 O   0  0  0  0  0  0  0  0  0  0  0  0
  -32.6014   14.1412  -24.3414 O   0  0  0  0  0  0  0  0  0  0  0  0
  -31.9588   13.6433  -21.4451 C   0  0  0  0  0  0  0  0  0  0  0  0
  -31.4184   14.9962  -21.0700 C   0  0  0  0  0  0  0  0  0  0  0  0
  -28.9948   13.4046  -21.0370 N   0  0  0  0  0  0  0  0  0  0  0  0
  -27.6873   13.0453  -20.9258 C   0  0  0  0  0  0  0  0  0  0  0  0
  -27.2013   12.5364  -19.6497 C   0  0  0  0  0  0  0  0  0  0  0  0
  -25.8868   12.0904  -19.5929 C   0  0  0  0  0  0  0  0  0  0  0  0
  -25.3870   11.5998  -18.4174 C   0  0  0  0  0  0  0  0  0  0  0  0
  -26.1402   11.5276  -17.2724 C   0  0  0  0  0  0  0  0  0  0  0  0
  -27.4456   11.9717  -17.3342 C   0  0  0  0  0  0  0  0  0  0  0  0
  -28.3908   12.0133  -16.3878 N   0  0  0  0  0  0  0  0  0  0  0  0
  -29.5062   12.5256  -16.9299 C   0  0  0  0  0  0  0  0  0  0  0  0
  -29.2693   12.8195  -18.2561 C   0  0  0  0  0  0  0  0  0  0  0  0
  -27.9647   12.4722  -18.5227 C   0  0  0  0  0  0  0  0  0  0  0  0
  -26.8927   13.1643  -21.9884 N   0  0  0  0  0  0  0  0  0  0  0  0
  2  1  1  6
  2  3  1  0
  3  4  1  0
  4  5  1  0
  5  6  1  0
  6  7  1  0
  7  8  1  0
  8  9  2  0
  9 10  1  0
 10 11  1  0
 11 12  1  0
 12 13  1  0
 12 14  2  0
 12 15  2  0
 11 16  1  0
 16 17  1  0
 10 18  2  0
 18 19  1  0
 19 20  1  0
 20 21  2  0
 21 22  1  0
 22 23  2  0
 23 24  1  0
 24 25  1  0
 25 26  1  0
 26 27  2  0
 27 28  1  0
 19 29  2  0
  7  2  1  0
 29  8  1  0
 17 11  1  0
 28 20  1  0
 28 24  2  0
M  END
$$$$
