
     RDKit          3D

 30 31  0  0  0  0  0  0  0  0999 V2000
  -22.5797   38.6300  -17.1763 C   0  0  0  0  0  0  0  0  0  0  0  0
  -21.6767   39.0870  -18.2716 C   0  0  0  0  0  0  0  0  0  0  0  0
  -21.7196   40.2625  -18.7096 O   0  0  0  0  0  0  0  0  0  0  0  0
  -20.7288   38.2116  -18.8670 N   0  0  0  0  0  0  0  0  0  0  0  0
  -19.8744   38.6468  -19.9145 C   0  0  0  0  0  0  0  0  0  0  0  0
  -18.9426   38.1706  -20.6313 N   0  0  0  0  0  0  0  0  0  0  0  0
  -18.3087   38.8102  -21.5501 C   0  0  0  0  0  0  0  0  0  0  0  0
  -17.1921   38.2221  -22.4012 C   0  0  0  0  0  0  0  0  0  0  0  0
  -18.6674   40.1209  -21.7787 C   0  0  0  0  0  0  0  0  0  0  0  0
  -18.1278   41.3169  -22.8523 S   0  0  0  0  0  6  0  0  0  0  0  0
  -18.9656   41.2977  -24.0996 O   0  0  0  0  0  0  0  0  0  0  0  0
  -16.7248   40.9438  -23.3179 O   0  0  0  0  0  0  0  0  0  0  0  0
  -18.0911   42.8674  -22.1804 N   0  0  0  0  0  0  0  0  0  0  0  0
  -17.0689   43.2493  -21.2695 C   0  0  0  0  0  0  0  0  0  0  0  0
  -16.3684   42.2985  -20.5635 C   0  0  0  0  0  0  0  0  0  0  0  0
  -15.3764   42.6829  -19.6787 C   0  0  0  0  0  0  0  0  0  0  0  0
  -15.0782   44.0133  -19.4933 C   0  0  0  0  0  0  0  0  0  0  0  0
  -14.0434   44.5368  -18.5772 C   0  0  0  0  0  0  0  0  0  0  0  0
  -13.7435   43.5746  -17.5813 O   0  0  0  0  0  0  0  0  0  0  0  0
  -14.6338   45.7524  -17.8641 C   0  0  0  0  0  0  0  0  0  0  0  0
  -13.8267   46.0851  -16.8035 F   0  0  0  0  0  0  0  0  0  0  0  0
  -15.8921   45.4277  -17.3937 F   0  0  0  0  0  0  0  0  0  0  0  0
  -14.7302   46.7692  -18.7939 F   0  0  0  0  0  0  0  0  0  0  0  0
  -12.7497   44.9112  -19.2013 C   0  0  0  0  0  0  0  0  0  0  0  0
  -11.7936   45.3914  -18.3664 F   0  0  0  0  0  0  0  0  0  0  0  0
  -12.2437   43.7606  -19.8033 F   0  0  0  0  0  0  0  0  0  0  0  0
  -12.9814   45.7889  -20.2604 F   0  0  0  0  0  0  0  0  0  0  0  0
  -15.7837   44.9841  -20.2052 C   0  0  0  0  0  0  0  0  0  0  0  0
  -16.7603   44.5732  -21.0743 C   0  0  0  0  0  0  0  0  0  0  0  0
  -19.9355   40.3709  -20.6251 S   0  0  0  0  0  0  0  0  0  0  0  0
  1  2  1  0
  2  3  2  0
  2  4  1  0
  4  5  1  0
  5  6  2  0
  6  7  1  0
  7  8  1  0
  7  9  2  0
  9 10  1  0
 10 11  2  0
 10 12  2  0
 10 13  1  0
 13 14  1  0
 14 15  2  0
 15 16  1  0
 16 17  2  0
 17 18  1  0
 18 19  1  0
 18 20  1  0
 20 21  1  0
 20 22  1  0
 20 23  1  0
 18 24  1  0
 24 25  1  0
 24 26  1  0
 24 27  1  0
 17 28  1  0
 28 29  2  0
  9 30  1  0
 30  5  1  0
 29 14  1  0
M  END
$$$$
