
     RDKit          3D

 41 46  0  0  0  0  0  0  0  0999 V2000
  -13.3325   15.3734  -37.6590 C   0  0  0  0  0  0  0  0  0  0  0  0
  -14.2866   16.3197  -38.2806 C   0  0  0  0  0  0  0  0  0  0  0  0
  -15.5889   16.3353  -37.8213 C   0  0  0  0  0  0  0  0  0  0  0  0
  -16.4752   17.1913  -38.3750 C   0  0  0  0  0  0  0  0  0  0  0  0
  -16.0987   18.0632  -39.4058 C   0  0  0  0  0  0  0  0  0  0  0  0
  -17.1326   18.9560  -39.9433 C   0  0  0  0  0  0  0  0  0  0  0  0
  -18.3561   18.7114  -39.6302 O   0  0  0  0  0  0  0  0  0  0  0  0
  -16.9156   20.0604  -40.7728 N   0  0  0  0  0  0  0  0  0  0  0  0
  -17.9022   20.9859  -41.2657 C   0  0  0  0  0  0  0  0  0  0  0  0
  -17.8599   21.6604  -42.4260 C   0  0  0  0  0  0  0  0  0  0  0  0
  -18.8355   22.5306  -42.8396 C   0  0  0  0  0  0  0  0  0  0  0  0
  -19.9457   22.7744  -42.0746 C   0  0  0  0  0  0  0  0  0  0  0  0
  -20.9365   23.5973  -42.3874 O   0  0  0  0  0  0  0  0  0  0  0  0
  -21.9996   23.7844  -43.1379 C   0  0  0  0  0  0  0  0  0  0  0  0
  -22.7124   22.8213  -43.8635 C   0  0  0  0  0  0  0  0  0  0  0  0
  -23.8226   23.1166  -44.6273 C   0  0  0  0  0  0  0  0  0  0  0  0
  -24.6799   22.3756  -45.4147 C   0  0  0  0  0  0  0  0  0  0  0  0
  -25.5690   23.2432  -45.8981 N   0  0  0  0  0  0  0  0  0  0  0  0
  -25.3467   24.4629  -45.4846 N   0  0  0  0  0  0  0  0  0  0  0  0
  -26.1149   25.6678  -45.8094 C   0  0  0  0  0  0  0  0  0  0  0  0
  -24.2510   24.4205  -44.6798 C   0  0  0  0  0  0  0  0  0  0  0  0
  -23.5858   25.3984  -43.9863 C   0  0  0  0  0  0  0  0  0  0  0  0
  -22.4906   25.1172  -43.2299 C   0  0  0  0  0  0  0  0  0  0  0  0
  -21.8096   26.1654  -42.4730 C   0  0  0  0  0  0  0  0  0  0  0  0
  -22.3964   26.8136  -41.4012 C   0  0  0  0  0  0  0  0  0  0  0  0
  -21.4972   27.6884  -40.9290 N   0  0  0  0  0  0  0  0  0  0  0  0
  -20.3846   27.6350  -41.6306 N   0  0  0  0  0  0  0  0  0  0  0  0
  -20.5645   26.7054  -42.5791 C   0  0  0  0  0  0  0  0  0  0  0  0
  -20.0181   22.0698  -40.8325 C   0  0  0  0  0  0  0  0  0  0  0  0
  -21.1043   22.2988  -40.0467 F   0  0  0  0  0  0  0  0  0  0  0  0
  -19.0325   21.2200  -40.4642 C   0  0  0  0  0  0  0  0  0  0  0  0
  -14.8035   17.9907  -39.8042 C   0  0  0  0  0  0  0  0  0  0  0  0
  -14.3875   18.7352  -40.7190 O   0  0  0  0  0  0  0  0  0  0  0  0
  -13.8833   17.1304  -39.2586 N   0  0  0  0  0  0  0  0  0  0  0  0
  -12.5430   17.1403  -39.7579 C   0  0  0  0  0  0  0  0  0  0  0  0
  -12.2158   16.5762  -40.9730 C   0  0  0  0  0  0  0  0  0  0  0  0
  -10.9371   16.5658  -41.4876 C   0  0  0  0  0  0  0  0  0  0  0  0
   -9.9449   17.1572  -40.7299 C   0  0  0  0  0  0  0  0  0  0  0  0
   -8.6897   17.1477  -41.2338 F   0  0  0  0  0  0  0  0  0  0  0  0
  -10.2627   17.7275  -39.5064 C   0  0  0  0  0  0  0  0  0  0  0  0
  -11.5470   17.7290  -39.0069 C   0  0  0  0  0  0  0  0  0  0  0  0
  1  2  1  0
  2  3  2  0
  3  4  1  0
  4  5  2  0
  5  6  1  0
  6  7  2  0
  6  8  1  0
  8  9  1  0
  9 10  2  0
 10 11  1  0
 11 12  2  0
 12 13  1  0
 13 14  1  0
 14 15  2  0
 15 16  1  0
 16 17  1  0
 17 18  2  0
 18 19  1  0
 19 20  1  0
 19 21  1  0
 21 22  1  0
 22 23  2  0
 23 24  1  0
 24 25  1  0
 25 26  2  0
 26 27  1  0
 27 28  1  0
 12 29  1  0
 29 30  1  0
 29 31  2  0
  5 32  1  0
 32 33  2  0
 32 34  1  0
 34 35  1  0
 35 36  2  0
 36 37  1  0
 37 38  2  0
 38 39  1  0
 38 40  1  0
 40 41  2  0
 34  2  1  0
 41 35  1  0
 31  9  1  0
 23 14  1  0
 28 24  2  0
 21 16  2  0
M  END
$$$$
