
     RDKit          3D

 19 19  0  0  0  0  0  0  0  0999 V2000
  -20.4116   41.5020  -18.8450 O   0  0  0  0  0  0  0  0  0  0  0  0
  -16.1267   40.0200  -23.0917 O   0  0  0  0  0  0  0  0  0  0  0  0
  -16.9795   39.2777  -22.5464 C   0  0  0  0  0  0  0  0  0  0  0  0
  -16.9908   37.9370  -22.8523 O   0  0  0  0  0  0  0  0  0  0  0  0
  -17.9310   39.8808  -21.6015 C   0  0  0  0  0  0  0  0  0  0  0  0
  -17.8892   41.2256  -21.3205 C   0  0  0  0  0  0  0  0  0  0  0  0
  -18.7646   41.8088  -20.4444 C   0  0  0  0  0  0  0  0  0  0  0  0
  -19.7096   41.0080  -19.8351 C   0  0  0  0  0  0  0  0  0  0  0  0
  -20.6603   41.5436  -18.9068 N   0  0  0  0  0  0  0  0  0  0  0  0
  -20.5713   42.6737  -18.3823 N   0  0  0  0  0  0  0  0  0  0  0  0
  -21.5114   43.2109  -17.4604 C   0  0  0  0  0  0  0  0  0  0  0  0
  -22.3695   42.4552  -16.7004 C   0  0  0  0  0  0  0  0  0  0  0  0
  -23.2702   42.9922  -15.8157 C   0  0  0  0  0  0  0  0  0  0  0  0
  -23.3520   44.3462  -15.6498 C   0  0  0  0  0  0  0  0  0  0  0  0
  -24.2636   44.9205  -14.7523 O   0  0  0  0  0  0  0  0  0  0  0  0
  -22.4995   45.1318  -16.4024 C   0  0  0  0  0  0  0  0  0  0  0  0
  -21.5895   44.5997  -17.2957 C   0  0  0  0  0  0  0  0  0  0  0  0
  -19.7998   39.6512  -20.0782 C   0  0  0  0  0  0  0  0  0  0  0  0
  -18.8881   39.1211  -20.9725 C   0  0  0  0  0  0  0  0  0  0  0  0
  2  3  2  0
  3  4  1  0
  3  5  1  0
  5  6  2  0
  6  7  1  0
  7  8  2  0
  8  9  1  0
  9 10  2  0
 10 11  1  0
 11 12  2  0
 12 13  1  0
 13 14  2  0
 14 15  1  0
 14 16  1  0
 16 17  2  0
  8 18  1  0
 18 19  2  0
 19  5  1  0
 17 11  1  0
M  END
$$$$
