
     RDKit          3D

 35 38  0  0  0  0  0  0  0  0999 V2000
  -19.0396   32.5539  -22.2203 C   0  0  0  0  0  0  0  0  0  0  0  0
  -19.2834   33.4229  -20.9797 C   0  0  0  0  0  0  0  0  0  0  0  0
  -18.2495   33.0188  -19.9496 C   0  0  0  0  0  0  0  0  0  0  0  0
  -20.6663   33.1945  -20.4225 C   0  0  0  0  0  0  0  0  0  0  0  0
  -19.1195   34.8212  -21.4108 C   0  0  0  0  0  0  0  0  0  0  0  0
  -18.1603   35.2669  -22.2905 C   0  0  0  0  0  0  0  0  0  0  0  0
  -18.0744   36.6136  -22.6441 C   0  0  0  0  0  0  0  0  0  0  0  0
  -18.9444   37.5470  -22.1273 C   0  0  0  0  0  0  0  0  0  0  0  0
  -18.8712   38.9891  -22.4773 C   0  0  0  0  0  0  0  0  0  0  0  0
  -17.8452   39.2247  -23.3865 O   0  0  0  0  0  0  0  0  0  0  0  0
  -18.6605   39.7515  -21.2096 C   0  0  0  0  0  0  0  0  0  0  0  0
  -17.8706   41.0295  -21.3720 C   0  0  0  0  0  0  0  0  0  0  0  0
  -18.3942   42.1195  -20.4584 C   0  0  0  0  0  0  0  0  0  0  0  0
  -17.9282   43.3850  -20.9291 N   0  0  0  0  0  0  0  0  0  0  0  0
  -18.3437   43.8129  -22.1956 C   0  0  0  0  0  0  0  0  0  0  0  0
  -18.6500   45.2352  -22.4502 C   0  0  0  0  0  0  0  0  0  0  0  0
  -18.4468   46.2132  -21.3676 C   0  0  0  0  0  0  0  0  0  0  0  0
  -17.1994   47.0698  -21.5000 C   0  0  0  0  0  0  0  0  0  0  0  0
  -17.0416   47.5165  -22.8181 O   0  0  0  0  0  0  0  0  0  0  0  0
  -17.2493   48.2724  -20.6343 C   0  0  0  0  0  0  0  0  0  0  0  0
  -18.1568   48.4830  -19.6387 C   0  0  0  0  0  0  0  0  0  0  0  0
  -18.1073   49.6484  -18.8843 C   0  0  0  0  0  0  0  0  0  0  0  0
  -17.1586   50.6284  -19.1005 C   0  0  0  0  0  0  0  0  0  0  0  0
  -16.2268   50.4200  -20.1176 C   0  0  0  0  0  0  0  0  0  0  0  0
  -16.2963   49.2641  -20.8469 C   0  0  0  0  0  0  0  0  0  0  0  0
  -15.9892   46.2936  -21.1011 C   0  0  0  0  0  0  0  0  0  0  0  0
  -15.7504   46.0365  -19.7665 C   0  0  0  0  0  0  0  0  0  0  0  0
  -14.6424   45.3117  -19.3540 C   0  0  0  0  0  0  0  0  0  0  0  0
  -13.7903   44.8585  -20.3179 C   0  0  0  0  0  0  0  0  0  0  0  0
  -13.9831   45.0894  -21.6807 C   0  0  0  0  0  0  0  0  0  0  0  0
  -15.0986   45.8137  -22.0309 C   0  0  0  0  0  0  0  0  0  0  0  0
  -18.5452   45.5705  -20.0207 C   0  0  0  0  0  0  0  0  0  0  0  0
  -17.6835   44.3391  -19.9093 C   0  0  0  0  0  0  0  0  0  0  0  0
  -19.9120   37.1107  -21.2432 C   0  0  0  0  0  0  0  0  0  0  0  0
  -19.9835   35.7839  -20.9053 C   0  0  0  0  0  0  0  0  0  0  0  0
  1  2  1  0
  2  3  1  0
  2  4  1  0
  2  5  1  0
  5  6  2  0
  6  7  1  0
  7  8  2  0
  8  9  1  0
  9 10  1  0
  9 11  1  0
 11 12  1  0
 12 13  1  0
 13 14  1  0
 14 15  1  0
 15 16  1  0
 16 17  1  0
 17 18  1  0
 18 19  1  0
 18 20  1  0
 20 21  2  0
 21 22  1  0
 22 23  2  0
 23 24  1  0
 24 25  2  0
 18 26  1  0
 26 27  2  0
 27 28  1  0
 28 29  2  0
 29 30  1  0
 30 31  2  0
 17 32  1  0
 32 33  1  0
  8 34  1  0
 34 35  2  0
 35  5  1  0
 33 14  1  0
 25 20  1  0
 31 26  1  0
M  END
$$$$
