
     RDKit          3D

 24 26  0  0  0  0  0  0  0  0999 V2000
  -16.6883   15.6566  -28.8807 C   0  0  0  0  0  0  0  0  0  0  0  0
  -17.5988   16.3937  -29.8584 C   0  0  2  0  0  0  0  0  0  0  0  0
  -18.6250   15.4758  -30.1631 N   0  0  0  0  0  0  0  0  0  0  0  0
  -19.9752   15.7965  -30.3280 C   0  0  0  0  0  0  0  0  0  0  0  0
  -20.8264   14.9561  -29.9023 N   0  0  0  0  0  0  0  0  0  0  0  0
  -22.1074   14.7820  -30.3624 C   0  0  0  0  0  0  0  0  0  0  0  0
  -23.0289   15.7524  -30.2976 C   0  0  0  0  0  0  0  0  0  0  0  0
  -24.3106   15.5745  -30.8291 C   0  0  0  0  0  0  0  0  0  0  0  0
  -24.6326   14.3801  -31.4312 C   0  0  0  0  0  0  0  0  0  0  0  0
  -23.7033   13.3759  -31.5079 C   0  0  0  0  0  0  0  0  0  0  0  0
  -24.0127   12.1886  -32.1059 N   0  0  0  0  0  0  0  0  0  0  0  0
  -23.1053   11.2037  -32.1856 C   0  0  0  0  0  0  0  0  0  0  0  0
  -21.8461   11.3504  -31.6749 C   0  0  0  0  0  0  0  0  0  0  0  0
  -21.5344   12.5475  -31.0721 C   0  0  0  0  0  0  0  0  0  0  0  0
  -22.4434   13.6090  -30.9616 C   0  0  0  0  0  0  0  0  0  0  0  0
  -20.4203   17.0253  -30.8999 N   0  0  0  0  0  0  0  0  0  0  0  0
  -20.3326   18.1971  -30.1537 C   0  0  0  0  0  0  0  0  0  0  0  0
  -20.2616   19.1628  -29.5163 N   0  0  0  0  0  0  0  0  0  0  0  0
  -16.7033   16.5663  -31.0557 C   0  0  0  0  0  0  0  0  0  0  0  0
  -16.3562   15.5632  -31.8795 C   0  0  0  0  0  0  0  0  0  0  0  0
  -15.4884   15.8615  -32.9406 C   0  0  0  0  0  0  0  0  0  0  0  0
  -15.0048   17.1398  -33.1367 C   0  0  0  0  0  0  0  0  0  0  0  0
  -15.3723   18.1502  -32.2835 C   0  0  0  0  0  0  0  0  0  0  0  0
  -16.2298   17.8433  -31.2399 C   0  0  0  0  0  0  0  0  0  0  0  0
  2  1  1  1
  2  3  1  0
  3  4  1  0
  4  5  2  0
  5  6  1  0
  6  7  2  0
  7  8  1  0
  8  9  2  0
  9 10  1  0
 10 11  2  0
 11 12  1  0
 12 13  2  0
 13 14  1  0
 14 15  2  0
  4 16  1  0
 16 17  1  0
 17 18  3  0
  2 19  1  0
 19 20  2  0
 20 21  1  0
 21 22  2  0
 22 23  1  0
 23 24  2  0
 15  6  1  0
 24 19  1  0
 15 10  1  0
M  END
$$$$
