
     RDKit          3D

 22 24  0  0  0  0  0  0  0  0999 V2000
  -20.8629   43.2532  -25.3521 C   0  0  0  0  0  0  0  0  0  0  0  0
  -20.1086   42.8682  -24.3450 C   0  0  0  0  0  0  0  0  0  0  0  0
  -20.6094   43.0076  -22.9621 C   0  0  0  0  0  0  0  0  0  0  0  0
  -19.6630   42.6914  -21.9355 N   0  0  0  0  0  0  0  0  0  0  0  0
  -18.5097   43.5177  -21.6634 C   0  0  0  0  0  0  0  0  0  0  0  0
  -18.2030   44.6011  -22.2568 O   0  0  0  0  0  0  0  0  0  0  0  0
  -17.7674   42.8897  -20.5946 C   0  0  0  0  0  0  0  0  0  0  0  0
  -16.6921   43.3011  -20.0700 N   0  0  0  0  0  0  0  0  0  0  0  0
  -15.9075   44.3697  -20.4791 N   0  0  0  0  0  0  0  0  0  0  0  0
  -14.6678   44.6019  -19.8462 C   0  0  0  0  0  0  0  0  0  0  0  0
  -13.6889   43.6347  -19.6605 C   0  0  0  0  0  0  0  0  0  0  0  0
  -12.4991   43.9237  -19.0257 C   0  0  0  0  0  0  0  0  0  0  0  0
  -12.2549   45.1941  -18.5583 C   0  0  0  0  0  0  0  0  0  0  0  0
  -13.2338   46.1683  -18.7426 C   0  0  0  0  0  0  0  0  0  0  0  0
  -14.4287   45.8804  -19.3788 C   0  0  0  0  0  0  0  0  0  0  0  0
  -15.3834   46.9001  -19.5399 O   0  0  0  0  0  0  0  0  0  0  0  0
  -18.4885   41.6793  -20.2286 C   0  0  0  0  0  0  0  0  0  0  0  0
  -18.2638   40.6833  -19.2848 C   0  0  0  0  0  0  0  0  0  0  0  0
  -19.1077   39.6140  -19.1262 C   0  0  0  0  0  0  0  0  0  0  0  0
  -20.2126   39.5535  -19.9497 C   0  0  0  0  0  0  0  0  0  0  0  0
  -20.4759   40.5179  -20.8998 C   0  0  0  0  0  0  0  0  0  0  0  0
  -19.6085   41.5790  -21.0337 C   0  0  0  0  0  0  0  0  0  0  0  0
  1  2  2  0
  2  3  1  0
  3  4  1  0
  4  5  1  0
  5  6  2  0
  5  7  1  0
  7  8  2  3
  8  9  1  0
  9 10  1  0
 10 11  2  0
 11 12  1  0
 12 13  2  0
 13 14  1  0
 14 15  2  0
 15 16  1  0
  7 17  1  0
 17 18  2  0
 18 19  1  0
 19 20  2  0
 20 21  1  0
 21 22  2  0
 22  4  1  0
 15 10  1  0
 22 17  1  0
M  END
$$$$
