
     RDKit          3D

 46 51  0  0  0  0  0  0  0  0999 V2000
  -14.1611   19.5640  -32.0412 C   0  0  0  0  0  0  0  0  0  0  0  0
  -15.0248   18.8005  -31.2176 O   0  0  0  0  0  0  0  0  0  0  0  0
  -16.3214   19.3060  -30.9491 C   0  0  0  0  0  0  0  0  0  0  0  0
  -17.3625   18.4641  -30.9142 N   0  0  0  0  0  0  0  0  0  0  0  0
  -18.6184   18.9326  -30.6617 C   0  0  0  0  0  0  0  0  0  0  0  0
  -18.8402   20.2533  -30.4423 C   0  0  0  0  0  0  0  0  0  0  0  0
  -20.1649   20.7944  -30.2076 C   0  0  0  0  0  0  0  0  0  0  0  0
  -21.0888   20.8742  -31.2014 C   0  0  0  0  0  0  0  0  0  0  0  0
  -22.3206   21.4144  -30.9267 C   0  0  0  0  0  0  0  0  0  0  0  0
  -22.6817   21.8858  -29.6926 C   0  0  0  0  0  0  0  0  0  0  0  0
  -23.9321   22.4211  -29.4949 C   0  0  0  0  0  0  0  0  0  0  0  0
  -24.8494   22.4596  -30.5289 N   0  0  0  0  0  0  0  0  0  0  0  0
  -24.8175   21.8809  -31.7904 C   0  0  0  0  0  0  0  0  0  0  0  0
  -24.9943   20.5359  -31.9656 C   0  0  0  0  0  0  0  0  0  0  0  0
  -24.9793   19.9103  -33.1931 C   0  0  0  0  0  0  0  0  0  0  0  0
  -25.1645   18.5377  -33.3232 O   0  0  0  0  0  0  0  0  0  0  0  0
  -24.1461   17.6345  -33.5591 C   0  0  0  0  0  0  0  0  0  0  0  0
  -23.1105   17.4802  -32.6369 C   0  0  0  0  0  0  0  0  0  0  0  0
  -22.0832   16.5849  -32.8530 C   0  0  0  0  0  0  0  0  0  0  0  0
  -21.0798   16.4415  -31.9493 F   0  0  0  0  0  0  0  0  0  0  0  0
  -22.0387   15.8068  -33.9884 C   0  0  0  0  0  0  0  0  0  0  0  0
  -23.0651   15.9587  -34.9032 C   0  0  0  0  0  0  0  0  0  0  0  0
  -23.0383   15.1941  -36.0392 F   0  0  0  0  0  0  0  0  0  0  0  0
  -24.1020   16.8609  -34.6875 C   0  0  0  0  0  0  0  0  0  0  0  0
  -24.7765   20.6647  -34.3143 C   0  0  0  0  0  0  0  0  0  0  0  0
  -24.5949   22.0061  -34.2007 C   0  0  0  0  0  0  0  0  0  0  0  0
  -24.3774   22.8306  -35.4007 C   0  0  0  0  0  0  0  0  0  0  0  0
  -24.3580   22.2948  -36.5396 O   0  0  0  0  0  0  0  0  0  0  0  0
  -24.1969   24.1785  -35.2731 O   0  0  0  0  0  0  0  0  0  0  0  0
  -24.6188   22.5932  -32.9324 C   0  0  0  0  0  0  0  0  0  0  0  0
  -24.2093   22.8802  -28.2323 C   0  0  0  0  0  0  0  0  0  0  0  0
  -25.7652   23.5589  -27.9447 S   0  0  0  0  0  6  0  0  0  0  0  0
  -26.1329   24.3957  -29.1725 O   0  0  0  0  0  0  0  0  0  0  0  0
  -25.7619   24.5885  -26.8472 O   0  0  0  0  0  0  0  0  0  0  0  0
  -26.9483   22.3699  -27.7453 N   0  0  0  0  0  0  0  0  0  0  0  0
  -26.8016   21.4675  -26.6789 C   0  0  0  0  0  0  0  0  0  0  0  0
  -27.9593   20.8951  -25.9314 C   0  0  0  0  0  0  0  0  0  0  0  0
  -27.0831   20.0189  -26.7552 C   0  0  0  0  0  0  0  0  0  0  0  0
  -23.2450   22.7931  -27.2136 C   0  0  0  0  0  0  0  0  0  0  0  0
  -22.0591   22.2674  -27.4607 N   0  0  0  0  0  0  0  0  0  0  0  0
  -21.7447   21.8134  -28.6561 C   0  0  0  0  0  0  0  0  0  0  0  0
  -20.5107   21.2724  -28.9284 C   0  0  0  0  0  0  0  0  0  0  0  0
  -17.7316   21.1263  -30.4824 C   0  0  0  0  0  0  0  0  0  0  0  0
  -17.9113   22.3615  -30.2804 O   0  0  0  0  0  0  0  0  0  0  0  0
  -18.1127   23.6234  -30.1191 C   0  0  0  0  0  0  0  0  0  0  0  0
  -16.5000   20.5938  -30.7397 N   0  0  0  0  0  0  0  0  0  0  0  0
  1  2  1  0
  2  3  1  0
  3  4  2  0
  4  5  1  0
  5  6  2  0
  6  7  1  0
  7  8  2  0
  8  9  1  0
  9 10  2  0
 10 11  1  0
 11 12  1  0
 12 13  1  0
 13 14  2  0
 14 15  1  0
 15 16  1  0
 16 17  1  0
 17 18  2  0
 18 19  1  0
 19 20  1  0
 19 21  2  0
 21 22  1  0
 22 23  1  0
 22 24  2  0
 15 25  2  0
 25 26  1  0
 26 27  1  0
 27 28  2  0
 27 29  1  0
 26 30  2  0
 11 31  2  0
 31 32  1  0
 32 33  2  0
 32 34  2  0
 32 35  1  0
 35 36  1  0
 36 37  1  0
 37 38  1  0
 31 39  1  0
 39 40  2  0
 40 41  1  0
 41 42  2  0
  6 43  1  0
 43 44  1  0
 44 45  1  0
 43 46  2  0
 46  3  1  0
 42  7  1  0
 41 10  1  0
 30 13  1  0
 38 36  1  0
 24 17  1  0
M  END
$$$$
