
     RDKit          3D

 26 28  0  0  0  0  0  0  0  0999 V2000
  -44.1545   10.8254  -36.4127 C   0  0  0  0  0  0  0  0  0  0  0  0
  -44.5535   10.5370  -34.9820 C   0  0  0  0  0  0  0  0  0  0  0  0
  -46.0246   10.1914  -34.9497 C   0  0  0  0  0  0  0  0  0  0  0  0
  -44.2591   11.7878  -34.1765 C   0  0  0  0  0  0  0  0  0  0  0  0
  -44.7346   11.5996  -32.7568 C   0  0  0  0  0  0  0  0  0  0  0  0
  -44.0929   10.4321  -32.0885 C   0  0  0  0  0  0  0  0  0  0  0  0
  -42.9609   10.8850  -31.1987 C   0  0  0  0  0  0  0  0  0  0  0  0
  -45.1658    9.7186  -31.2590 C   0  0  0  0  0  0  0  0  0  0  0  0
  -43.5608    9.4235  -33.0327 C   0  0  0  0  0  0  0  0  0  0  0  0
  -42.8127    8.3881  -32.5117 C   0  0  0  0  0  0  0  0  0  0  0  0
  -42.2666    7.3940  -33.2828 C   0  0  0  0  0  0  0  0  0  0  0  0
  -41.4870    6.3357  -32.6402 C   0  0  0  0  0  0  0  0  0  0  0  0
  -41.1717    6.4462  -31.4091 O   0  0  0  0  0  0  0  0  0  0  0  0
  -41.0399    5.1668  -33.2852 N   0  0  0  0  0  0  0  0  0  0  0  0
  -40.3099    4.1747  -32.5748 C   0  0  0  0  0  0  0  0  0  0  0  0
  -40.0022    2.9514  -33.1334 C   0  0  0  0  0  0  0  0  0  0  0  0
  -39.2932    1.9952  -32.4356 C   0  0  0  0  0  0  0  0  0  0  0  0
  -38.8579    2.2244  -31.1376 C   0  0  0  0  0  0  0  0  0  0  0  0
  -38.1089    1.2279  -30.3860 C   0  0  0  0  0  0  0  0  0  0  0  0
  -37.9610    0.0944  -30.9049 O   0  0  0  0  0  0  0  0  0  0  0  0
  -37.5597    1.4604  -29.1490 O   0  0  0  0  0  0  0  0  0  0  0  0
  -39.1665    3.4460  -30.5832 C   0  0  0  0  0  0  0  0  0  0  0  0
  -39.8768    4.4015  -31.2846 C   0  0  0  0  0  0  0  0  0  0  0  0
  -42.4899    7.4544  -34.6395 C   0  0  0  0  0  0  0  0  0  0  0  0
  -43.2338    8.4753  -35.1988 C   0  0  0  0  0  0  0  0  0  0  0  0
  -43.7547    9.4403  -34.3824 C   0  0  0  0  0  0  0  0  0  0  0  0
  1  2  1  0
  2  3  1  0
  2  4  1  0
  4  5  1  0
  5  6  1  0
  6  7  1  0
  6  8  1  0
  6  9  1  0
  9 10  2  0
 10 11  1  0
 11 12  1  0
 12 13  2  0
 12 14  1  0
 14 15  1  0
 15 16  2  0
 16 17  1  0
 17 18  2  0
 18 19  1  0
 19 20  2  0
 19 21  1  0
 18 22  1  0
 22 23  2  0
 11 24  2  0
 24 25  1  0
 25 26  2  0
 26  2  1  0
 26  9  1  0
 23 15  1  0
M  END
$$$$
