
     RDKit          3D

 24 26  0  0  0  0  0  0  0  0999 V2000
  -16.9860   16.2264  -31.0350 Cl  0  0  0  0  0  0  0  0  0  0  0  0
  -16.7829   21.5024  -29.5277 Cl  0  0  0  0  0  0  0  0  0  0  0  0
  -16.5849   19.9748  -30.3820 C   0  0  0  0  0  0  0  0  0  0  0  0
  -15.3901   19.2907  -30.3731 C   0  0  0  0  0  0  0  0  0  0  0  0
  -15.2414   18.0778  -31.0543 C   0  0  0  0  0  0  0  0  0  0  0  0
  -16.2828   17.5173  -31.7619 C   0  0  0  0  0  0  0  0  0  0  0  0
  -16.2142   16.2553  -32.5083 C   0  0  0  0  0  0  0  0  0  0  0  0
  -16.4763   15.0731  -31.7270 N   0  0  0  0  0  0  0  0  0  0  0  0
  -17.6531   14.4670  -31.4834 C   0  0  0  0  0  0  0  0  0  0  0  0
  -18.9978   14.8783  -31.9552 C   0  0  0  0  0  0  0  0  0  0  0  0
  -19.5758   15.7412  -30.9550 N   0  0  0  0  0  0  0  0  0  0  0  0
  -19.7498   15.1361  -29.6776 C   0  0  0  0  0  0  0  0  0  0  0  0
  -21.1606   15.3462  -29.2556 C   0  0  0  0  0  0  0  0  0  0  0  0
  -21.7455   16.3206  -30.2309 C   0  0  0  0  0  0  0  0  0  0  0  0
  -20.7375   16.4504  -31.3524 C   0  0  0  0  0  0  0  0  0  0  0  0
  -17.4490   13.3774  -30.7088 N   0  0  0  0  0  0  0  0  0  0  0  0
  -16.1352   13.2649  -30.4411 C   0  0  0  0  0  0  0  0  0  0  0  0
  -15.4281   12.3402  -29.7080 C   0  0  0  0  0  0  0  0  0  0  0  0
  -14.0628   12.4656  -29.5979 C   0  0  0  0  0  0  0  0  0  0  0  0
  -13.4585   13.5280  -30.2371 C   0  0  0  0  0  0  0  0  0  0  0  0
  -14.1770   14.4478  -30.9684 C   0  0  0  0  0  0  0  0  0  0  0  0
  -15.5461   14.3396  -31.0904 C   0  0  0  0  0  0  0  0  0  0  0  0
  -17.4816   18.2323  -31.7538 C   0  0  0  0  0  0  0  0  0  0  0  0
  -17.6340   19.4257  -31.0856 C   0  0  0  0  0  0  0  0  0  0  0  0
  2  3  1  0
  3  4  2  0
  4  5  1  0
  5  6  2  0
  6  7  1  0
  7  8  1  0
  8  9  1  0
  9 10  1  0
 10 11  1  0
 11 12  1  0
 12 13  1  0
 13 14  1  0
 14 15  1  0
  9 16  2  0
 16 17  1  0
 17 18  2  0
 18 19  1  0
 19 20  2  0
 20 21  1  0
 21 22  2  0
  6 23  1  0
 23 24  2  0
 24  3  1  0
 22  8  1  0
 15 11  1  0
 22 17  1  0
M  END
$$$$
