
     RDKit          3D

 27 29  0  0  0  0  0  0  0  0999 V2000
  -28.5362   17.4906  -22.2598 C   0  0  0  0  0  0  0  0  0  0  0  0
  -28.6327   16.2803  -22.9866 O   0  0  0  0  0  0  0  0  0  0  0  0
  -28.7290   15.0463  -22.3680 C   0  0  0  0  0  0  0  0  0  0  0  0
  -29.6698   14.8292  -21.3899 C   0  0  0  0  0  0  0  0  0  0  0  0
  -29.7576   13.5958  -20.7796 C   0  0  0  0  0  0  0  0  0  0  0  0
  -28.8839   12.5853  -21.1694 C   0  0  0  0  0  0  0  0  0  0  0  0
  -28.9726   11.2767  -20.5260 C   0  0  0  0  0  0  0  0  0  0  0  0
  -30.1840   10.6304  -20.4801 C   0  0  0  0  0  0  0  0  0  0  0  0
  -30.3551    9.3946  -19.8928 C   0  0  0  0  0  0  0  0  0  0  0  0
  -29.2671    8.7650  -19.3200 C   0  0  0  0  0  0  0  0  0  0  0  0
  -28.0502    9.4059  -19.3619 C   0  0  0  0  0  0  0  0  0  0  0  0
  -27.8835   10.6481  -19.9535 C   0  0  0  0  0  0  0  0  0  0  0  0
  -27.9468   12.8440  -22.1619 C   0  0  0  0  0  0  0  0  0  0  0  0
  -27.8362   14.0664  -22.7890 C   0  0  0  0  0  0  0  0  0  0  0  0
  -26.8926   14.3339  -23.7884 N   0  0  0  0  0  0  0  0  0  0  0  0
  -25.2098   14.3694  -23.5157 S   0  0  0  0  0  6  0  0  0  0  0  0
  -24.5801   13.0191  -23.7109 O   0  0  0  0  0  0  0  0  0  0  0  0
  -24.5746   15.3938  -24.4363 O   0  0  0  0  0  0  0  0  0  0  0  0
  -24.8212   14.8692  -21.8761 C   0  0  0  0  0  0  0  0  0  0  0  0
  -24.5651   16.1827  -21.5373 C   0  0  0  0  0  0  0  0  0  0  0  0
  -24.2590   16.5603  -20.2464 C   0  0  0  0  0  0  0  0  0  0  0  0
  -23.9417   18.2501  -19.8745 Cl  0  0  0  0  0  0  0  0  0  0  0  0
  -24.1965   15.6293  -19.2323 C   0  0  0  0  0  0  0  0  0  0  0  0
  -24.4499   14.3131  -19.5547 C   0  0  0  0  0  0  0  0  0  0  0  0
  -24.3759   13.1193  -18.2875 Cl  0  0  0  0  0  0  0  0  0  0  0  0
  -24.7552   13.9404  -20.8458 C   0  0  0  0  0  0  0  0  0  0  0  0
  -25.0125   12.6013  -21.1708 O   0  0  0  0  0  0  0  0  0  0  0  0
  1  2  1  0
  2  3  1  0
  3  4  2  0
  4  5  1  0
  5  6  2  0
  6  7  1  0
  7  8  2  0
  8  9  1  0
  9 10  2  0
 10 11  1  0
 11 12  2  0
  6 13  1  0
 13 14  2  0
 14 15  1  0
 15 16  1  0
 16 17  2  0
 16 18  2  0
 16 19  1  0
 19 20  2  0
 20 21  1  0
 21 22  1  0
 21 23  2  0
 23 24  1  0
 24 25  1  0
 24 26  2  0
 26 27  1  0
 14  3  1  0
 26 19  1  0
 12  7  1  0
M  END
$$$$
