
     RDKit          3D

 17 16  0  0  0  0  0  0  0  0999 V2000
  -16.1101    2.2394  -31.1443 C   0  0  0  0  0  0  0  0  0  0  0  0
  -14.8700    1.5570  -31.6331 C   0  0  0  0  0  0  0  0  0  0  0  0
  -13.6402    2.1841  -31.5895 C   0  0  0  0  0  0  0  0  0  0  0  0
  -12.5271    1.5222  -32.0481 C   0  0  0  0  0  0  0  0  0  0  0  0
  -12.5963    0.2435  -32.5544 C   0  0  0  0  0  0  0  0  0  0  0  0
  -13.8206   -0.3815  -32.5981 C   0  0  0  0  0  0  0  0  0  0  0  0
  -13.9206   -1.6697  -33.1030 O   0  0  0  0  0  0  0  0  0  0  0  0
  -12.7493   -2.2992  -33.5582 C   0  0  0  0  0  0  0  0  0  0  0  0
  -13.0153   -3.6942  -34.0783 C   0  0  0  0  0  0  0  0  0  0  0  0
  -11.7899   -4.2144  -34.5037 O   0  0  0  0  0  0  0  0  0  0  0  0
  -14.0397   -3.7190  -35.1825 C   0  0  0  0  0  0  0  0  0  0  0  0
  -13.5594   -2.9305  -36.2852 N   0  0  0  0  0  0  0  0  0  0  0  0
  -14.4870   -2.9069  -37.3981 C   0  0  0  0  0  0  0  0  0  0  0  0
  -15.8206   -2.3344  -37.0233 C   0  0  0  0  0  0  0  0  0  0  0  0
  -14.6762   -4.2519  -38.0173 C   0  0  0  0  0  0  0  0  0  0  0  0
  -14.9489    0.2875  -32.1340 C   0  0  0  0  0  0  0  0  0  0  0  0
  -14.0799   -1.0072  -33.7804 Cl  0  0  0  0  0  0  0  0  0  0  0  0
  1  2  1  0
  2  3  2  0
  3  4  1  0
  4  5  2  0
  5  6  1  0
  6  7  1  0
  7  8  1  0
  8  9  1  0
  9 10  1  0
  9 11  1  0
 11 12  1  0
 12 13  1  0
 13 14  1  0
 13 15  1  0
  6 16  2  0
 16  2  1  0
M  END
$$$$
