
     RDKit          3D

 15 16  0  0  0  0  0  0  0  0999 V2000
  -10.2092   17.6396  -39.0382 C   0  0  0  0  0  0  0  0  0  0  0  0
  -11.5013   17.7431  -39.7882 C   0  0  0  0  0  0  0  0  0  0  0  0
  -12.6607   17.4182  -39.1221 C   0  0  0  0  0  0  0  0  0  0  0  0
  -13.8469   17.5166  -39.8169 C   0  0  0  0  0  0  0  0  0  0  0  0
  -13.8593   17.9293  -41.1394 C   0  0  0  0  0  0  0  0  0  0  0  0
  -12.6722   18.2487  -41.7797 C   0  0  0  0  0  0  0  0  0  0  0  0
  -12.7440   18.6701  -43.1745 C   0  0  0  0  0  0  0  0  0  0  0  0
  -13.5982   19.9112  -43.3172 C   0  0  0  0  0  0  0  0  0  0  0  0
  -13.2944   17.6669  -44.1157 C   0  0  0  0  0  0  0  0  0  0  0  0
  -14.3528   17.8458  -44.9735 C   0  0  0  0  0  0  0  0  0  0  0  0
  -14.5215   16.7062  -45.6506 N   0  0  0  0  0  0  0  0  0  0  0  0
  -13.5871   15.8479  -45.2176 C   0  0  0  0  0  0  0  0  0  0  0  0
  -12.8294   16.4268  -44.2765 N   0  0  0  0  0  0  0  0  0  0  0  0
  -11.4769   18.1623  -41.1196 C   0  0  0  0  0  0  0  0  0  0  0  0
  -10.1728   18.4903  -41.7293 C   0  0  0  0  0  0  0  0  0  0  0  0
  1  2  1  0
  2  3  2  0
  3  4  1  0
  4  5  2  0
  5  6  1  0
  6  7  1  0
  7  8  1  0
  7  9  1  0
  9 10  2  0
 10 11  1  0
 11 12  2  0
 12 13  1  0
  6 14  2  0
 14 15  1  0
 14  2  1  0
 13  9  1  0
M  END
$$$$
