
     RDKit          3D

 28 29  0  0  0  0  0  0  0  0999 V2000
  -17.2499   44.0552  -20.5839 Cl  0  0  0  0  0  0  0  0  0  0  0  0
  -17.2472   44.0540  -20.5822 Cl  0  0  0  0  0  0  0  0  0  0  0  0
  -12.4160   44.7960  -15.4631 N   0  0  0  0  0  0  0  0  0  0  0  0
  -13.0644   44.6097  -16.4099 C   0  0  0  0  0  0  0  0  0  0  0  0
  -13.8922   44.3702  -17.5758 C   0  0  0  0  0  0  0  0  0  0  0  0
  -15.1906   43.9292  -17.4319 C   0  0  0  0  0  0  0  0  0  0  0  0
  -15.9689   43.7049  -18.5580 C   0  0  0  0  0  0  0  0  0  0  0  0
  -15.5126   43.9003  -19.8317 C   0  0  0  0  0  0  0  0  0  0  0  0
  -16.2103   43.7040  -20.9848 O   0  0  0  0  0  0  0  0  0  0  0  0
  -17.5229   43.2682  -21.1443 C   0  0  2  0  0  0  0  0  0  0  0  0
  -17.5617   41.9800  -21.8843 C   0  0  0  0  0  0  0  0  0  0  0  0
  -16.8064   40.8191  -21.7595 C   0  0  0  0  0  0  0  0  0  0  0  0
  -17.0593   39.7546  -22.5875 C   0  0  0  0  0  0  0  0  0  0  0  0
  -18.0416   39.8197  -23.5313 C   0  0  0  0  0  0  0  0  0  0  0  0
  -18.8031   40.9642  -23.6712 C   0  0  0  0  0  0  0  0  0  0  0  0
  -18.5513   42.0572  -22.8290 C   0  0  0  0  0  0  0  0  0  0  0  0
  -19.2432   43.3707  -22.8128 C   0  0  0  0  0  0  0  0  0  0  0  0
  -18.2531   44.2065  -22.0258 C   0  0  1  0  0  0  0  0  0  0  0  0
  -18.8417   45.3354  -21.3823 N   0  0  0  0  0  0  0  0  0  0  0  0
  -19.8024   45.0500  -20.3858 C   0  0  0  0  0  0  0  0  0  0  0  0
  -20.2425   46.3857  -19.7712 C   0  0  0  0  0  0  0  0  0  0  0  0
  -21.0570   47.0582  -20.8562 C   0  0  0  0  0  0  0  0  0  0  0  0
  -20.1214   47.3675  -21.9727 C   0  0  1  0  0  0  0  0  0  0  0  0
  -19.4322   48.6218  -21.6316 N   0  0  0  0  0  0  0  0  0  0  0  0
  -19.1805   46.3061  -22.3488 C   0  0  0  0  0  0  0  0  0  0  0  0
  -14.1950   44.3470  -19.9538 C   0  0  0  0  0  0  0  0  0  0  0  0
  -13.5210   44.6258  -21.5410 Cl  0  0  0  0  0  0  0  0  0  0  0  0
  -13.4184   44.5713  -18.8457 C   0  0  0  0  0  0  0  0  0  0  0  0
  3  4  3  0
  4  5  1  0
  5  6  2  0
  6  7  1  0
  7  8  2  0
  8  9  1  0
 10  9  1  6
 10 11  1  0
 11 12  2  0
 12 13  1  0
 13 14  2  0
 14 15  1  0
 15 16  2  0
 16 17  1  0
 17 18  1  0
 18 19  1  1
 19 20  1  0
 20 21  1  0
 21 22  1  0
 22 23  1  0
 23 24  1  1
 23 25  1  0
  8 26  1  0
 26 27  1  0
 26 28  2  0
 28  5  1  0
 18 10  1  0
 25 19  1  0
 16 11  1  0
M  END
$$$$
