
     RDKit          3D

 15 16  0  0  0  0  0  0  0  0999 V2000
  -17.4690   36.6825  -22.7989 O   0  0  0  0  0  0  0  0  0  0  0  0
  -18.4886   37.1441  -22.2336 C   0  0  0  0  0  0  0  0  0  0  0  0
  -19.2995   36.2619  -21.5419 O   0  0  0  0  0  0  0  0  0  0  0  0
  -18.8081   38.5962  -22.3098 C   0  0  0  0  0  0  0  0  0  0  0  0
  -18.3284   39.3253  -21.0767 C   0  0  0  0  0  0  0  0  0  0  0  0
  -18.6849   40.7550  -21.0673 C   0  0  0  0  0  0  0  0  0  0  0  0
  -18.4598   41.5977  -22.1509 C   0  0  0  0  0  0  0  0  0  0  0  0
  -18.8290   42.9213  -22.0470 C   0  0  0  0  0  0  0  0  0  0  0  0
  -19.4104   43.4385  -20.9139 C   0  0  0  0  0  0  0  0  0  0  0  0
  -19.6374   42.6029  -19.8283 C   0  0  0  0  0  0  0  0  0  0  0  0
  -19.2685   41.2693  -19.9267 C   0  0  0  0  0  0  0  0  0  0  0  0
  -19.6627   40.6016  -18.5507 B   0  0  0  0  0  0  0  0  0  0  0  0
  -19.8734   39.1476  -18.4211 O   0  0  0  0  0  0  0  0  0  0  0  0
  -20.6291   41.5825  -17.9960 O   0  0  0  0  0  0  0  0  0  0  0  0
  -20.2127   42.7889  -18.4937 C   0  0  0  0  0  0  0  0  0  0  0  0
  1  2  2  0
  2  3  1  0
  2  4  1  0
  4  5  1  0
  5  6  1  0
  6  7  2  0
  7  8  1  0
  8  9  2  0
  9 10  1  0
 10 11  2  0
 11 12  1  0
 12 13  1  0
 12 14  1  0
 14 15  1  0
 11  6  1  0
 15 10  1  0
M  END
$$$$
