
     RDKit          3D

 13 14  0  0  0  0  0  0  0  0999 V2000
  -27.0571   17.7911  -22.8546 O   0  0  0  0  0  0  0  0  0  0  0  0
  -26.4471   17.0560  -23.6340 N   0  0  0  0  0  4  0  0  0  0  0  0
  -25.7121   17.6922  -24.6315 O   0  0  0  0  0  1  0  0  0  0  0  0
  -26.4641   15.6350  -23.5572 C   0  0  0  0  0  0  0  0  0  0  0  0
  -25.7443   14.8808  -24.4566 C   0  0  0  0  0  0  0  0  0  0  0  0
  -25.7380   13.4938  -24.4113 C   0  0  0  0  0  0  0  0  0  0  0  0
  -26.4709   12.8392  -23.4408 C   0  0  0  0  0  0  0  0  0  0  0  0
  -27.1987   13.5605  -22.5299 C   0  0  0  0  0  0  0  0  0  0  0  0
  -28.0079   13.1744  -21.4712 C   0  0  0  0  0  0  0  0  0  0  0  0
  -28.3775   11.3758  -20.9253 Br  0  0  0  0  0  0  0  0  0  0  0  0
  -28.4561   14.3207  -20.9374 N   0  0  0  0  0  0  0  0  0  0  0  0
  -27.9793   15.3690  -21.5927 N   0  0  0  0  0  0  0  0  0  0  0  0
  -27.1832   14.9457  -22.6032 C   0  0  0  0  0  0  0  0  0  0  0  0
  1  2  2  0
  2  3  1  0
  2  4  1  0
  4  5  2  0
  5  6  1  0
  6  7  2  0
  7  8  1  0
  8  9  1  0
  9 10  1  0
  9 11  2  0
 11 12  1  0
 12 13  1  0
 13  4  1  0
 13  8  2  0
M  CHG  2   2   1   3  -1
M  END
$$$$
