
     RDKit          3D

 22 22  0  0  0  0  0  0  0  0999 V2000
  -33.7766    8.5272  -19.5428 C   0  0  0  0  0  0  0  0  0  0  0  0
  -33.7317    9.9775  -20.0016 C   0  0  0  0  0  0  0  0  0  0  0  0
  -32.3833   10.1914  -20.7264 C   0  0  0  0  0  0  0  0  0  0  0  0
  -32.2922   11.6641  -21.1327 C   0  0  0  0  0  0  0  0  0  0  0  0
  -31.6418   12.5352  -20.2924 N   0  0  0  0  0  0  0  0  0  0  0  0
  -31.6250   12.4412  -18.9069 C   0  0  0  0  0  0  0  0  0  0  0  0
  -31.9497   13.6542  -18.0835 C   0  0  0  0  0  0  0  0  0  0  0  0
  -32.7385   13.1585  -16.8530 C   0  0  0  0  0  0  0  0  0  0  0  0
  -33.2526   14.3221  -16.0758 C   0  0  0  0  0  0  0  0  0  0  0  0
  -30.6069   13.3711  -20.7735 C   0  0  0  0  0  0  0  0  0  0  0  0
  -30.0599   13.1072  -22.1307 C   0  0  0  0  0  0  0  0  0  0  0  0
  -29.1046   14.1127  -22.6365 C   0  0  0  0  0  0  0  0  0  0  0  0
  -27.9145   14.1866  -21.8254 O   0  0  0  0  0  0  0  0  0  0  0  0
  -26.7784   13.5496  -22.2531 C   0  0  0  0  0  0  0  0  0  0  0  0
  -26.8139   12.3182  -22.4779 O   0  0  0  0  0  0  0  0  0  0  0  0
  -25.5182   14.2967  -22.4523 C   0  0  0  0  0  0  0  0  0  0  0  0
  -25.4582   15.6499  -22.2020 C   0  0  0  0  0  0  0  0  0  0  0  0
  -24.2944   16.3639  -22.4010 C   0  0  0  0  0  0  0  0  0  0  0  0
  -23.1389   15.7709  -22.8572 C   0  0  0  0  0  0  0  0  0  0  0  0
  -21.9575   16.5317  -23.0689 N   0  0  0  0  0  0  0  0  0  0  0  0
  -23.1861   14.4073  -23.1119 C   0  0  0  0  0  0  0  0  0  0  0  0
  -24.3706   13.6884  -22.9078 C   0  0  0  0  0  0  0  0  0  0  0  0
  1  2  1  0
  2  3  1  0
  3  4  1  0
  4  5  1  0
  5  6  1  0
  6  7  1  0
  7  8  1  0
  8  9  1  0
  5 10  1  0
 10 11  1  0
 11 12  1  0
 12 13  1  0
 13 14  1  0
 14 15  2  0
 14 16  1  0
 16 17  2  0
 17 18  1  0
 18 19  2  0
 19 20  1  0
 19 21  1  0
 21 22  2  0
 22 16  1  0
M  END
$$$$
