
     RDKit          3D

 27 28  0  0  0  0  0  0  0  0999 V2000
  -12.4705   10.6927  -28.6682 C   0  0  0  0  0  0  0  0  0  0  0  0
  -12.4840   12.0246  -29.1474 O   0  0  0  0  0  0  0  0  0  0  0  0
  -13.6995   12.7178  -29.0886 C   0  0  0  0  0  0  0  0  0  0  0  0
  -14.6837   12.4117  -28.1771 C   0  0  0  0  0  0  0  0  0  0  0  0
  -15.8875   13.0920  -28.1125 C   0  0  0  0  0  0  0  0  0  0  0  0
  -16.9018   12.7009  -27.0980 C   0  0  0  0  0  0  0  0  0  0  0  0
  -16.1023   14.1208  -29.0046 C   0  0  0  0  0  0  0  0  0  0  0  0
  -17.3479   14.8753  -28.9881 C   0  0  0  0  0  0  0  0  0  0  0  0
  -18.0169   15.0601  -27.9406 O   0  0  0  0  0  0  0  0  0  0  0  0
  -17.8236   15.4117  -30.1513 O   0  0  0  0  0  0  0  0  0  0  0  0
  -18.9297   16.2433  -30.2504 C   0  0  0  0  0  0  0  0  0  0  0  0
  -18.8270   17.6112  -30.1355 C   0  0  0  0  0  0  0  0  0  0  0  0
  -19.9101   18.4569  -30.2302 C   0  0  0  0  0  0  0  0  0  0  0  0
  -19.8095   19.9328  -30.1077 C   0  0  0  0  0  0  0  0  0  0  0  0
  -21.1514   17.8843  -30.4516 C   0  0  0  0  0  0  0  0  0  0  0  0
  -22.3637   18.7064  -30.5668 C   0  0  0  0  0  0  0  0  0  0  0  0
  -22.8102   19.1123  -31.6631 O   0  0  0  0  0  0  0  0  0  0  0  0
  -23.0082   19.0212  -29.3789 O   0  0  0  0  0  0  0  0  0  0  0  0
  -21.3098   16.5237  -30.5741 C   0  0  0  0  0  0  0  0  0  0  0  0
  -22.5625   15.9716  -30.7957 O   0  0  0  0  0  0  0  0  0  0  0  0
  -20.1806   15.7059  -30.4706 C   0  0  0  0  0  0  0  0  0  0  0  0
  -20.3302   14.2332  -30.6000 C   0  0  0  0  0  0  0  0  0  0  0  0
  -15.1389   14.4796  -29.9558 C   0  0  0  0  0  0  0  0  0  0  0  0
  -15.3913   15.5257  -30.8419 O   0  0  0  0  0  0  0  0  0  0  0  0
  -15.0771   15.4541  -32.2157 C   0  0  0  0  0  0  0  0  0  0  0  0
  -13.9649   13.7599  -29.9627 C   0  0  0  0  0  0  0  0  0  0  0  0
  -12.9462   14.1423  -30.9713 C   0  0  0  0  0  0  0  0  0  0  0  0
  1  2  1  0
  2  3  1  0
  3  4  2  0
  4  5  1  0
  5  6  1  0
  5  7  2  0
  7  8  1  0
  8  9  2  0
  8 10  1  0
 10 11  1  0
 11 12  2  0
 12 13  1  0
 13 14  1  0
 13 15  2  0
 15 16  1  0
 16 17  2  0
 16 18  1  0
 15 19  1  0
 19 20  1  0
 19 21  2  0
 21 22  1  0
  7 23  1  0
 23 24  1  0
 24 25  1  0
 23 26  2  0
 26 27  1  0
 26  3  1  0
 21 11  1  0
M  END
$$$$
