
     RDKit          3D

 20 22  0  0  0  0  0  0  0  0999 V2000
  -15.0996   47.9281  -21.5500 C   0  0  0  0  0  0  0  0  0  0  0  0
  -15.7221   47.5811  -20.2087 C   0  0  0  0  0  0  0  0  0  0  0  0
  -16.6833   48.6554  -19.8183 C   0  0  0  0  0  0  0  0  0  0  0  0
  -16.3648   46.2412  -20.2988 C   0  0  0  0  0  0  0  0  0  0  0  0
  -17.1383   45.8634  -21.3531 C   0  0  0  0  0  0  0  0  0  0  0  0
  -17.7077   44.5840  -21.3623 C   0  0  0  0  0  0  0  0  0  0  0  0
  -17.5209   43.6884  -20.3519 C   0  0  0  0  0  0  0  0  0  0  0  0
  -18.1283   42.3644  -20.3930 C   0  0  0  0  0  0  0  0  0  0  0  0
  -18.2784   41.5541  -19.2959 C   0  0  0  0  0  0  0  0  0  0  0  0
  -18.8677   40.2844  -19.3695 C   0  0  0  0  0  0  0  0  0  0  0  0
  -18.9904   39.5679  -18.3491 O   0  0  0  0  0  0  0  0  0  0  0  0
  -19.3057   39.8517  -20.5954 C   0  0  0  0  0  0  0  0  0  0  0  0
  -19.8978   38.6075  -20.7418 C   0  0  0  0  0  0  0  0  0  0  0  0
  -20.3423   38.1582  -21.9627 C   0  0  0  0  0  0  0  0  0  0  0  0
  -20.1666   39.0163  -23.0399 C   0  0  0  0  0  0  0  0  0  0  0  0
  -19.5848   40.2454  -22.9109 C   0  0  0  0  0  0  0  0  0  0  0  0
  -19.1371   40.7023  -21.6910 C   0  0  0  0  0  0  0  0  0  0  0  0
  -18.5775   41.8765  -21.5490 O   0  0  0  0  0  0  0  0  0  0  0  0
  -16.7322   44.0768  -19.2792 C   0  0  0  0  0  0  0  0  0  0  0  0
  -16.1734   45.3357  -19.2727 C   0  0  0  0  0  0  0  0  0  0  0  0
  1  2  1  0
  2  3  1  0
  2  4  1  0
  4  5  2  0
  5  6  1  0
  6  7  2  0
  7  8  1  0
  8  9  2  0
  9 10  1  0
 10 11  2  0
 10 12  1  0
 12 13  2  0
 13 14  1  0
 14 15  2  0
 15 16  1  0
 16 17  2  0
 17 18  1  0
  7 19  1  0
 19 20  2  0
 20  4  1  0
 18  8  1  0
 17 12  1  0
M  END
$$$$
