
     RDKit          3D

  9  9  0  0  0  0  0  0  0  0999 V2000
  -16.9756   31.1481  -21.4133 N   0  0  0  0  0  0  0  0  0  0  0  0
  -17.9232   31.5391  -21.9498 C   0  0  0  0  0  0  0  0  0  0  0  0
  -19.1435   32.0490  -22.6135 C   0  0  0  0  0  0  0  0  0  0  0  0
  -20.2482   32.2303  -21.6209 C   0  0  0  0  0  0  0  0  0  0  0  0
  -20.5362   31.1414  -20.8126 C   0  0  0  0  0  0  0  0  0  0  0  0
  -21.5574   31.3193  -19.9000 C   0  0  0  0  0  0  0  0  0  0  0  0
  -22.2424   32.5098  -19.8059 C   0  0  0  0  0  0  0  0  0  0  0  0
  -21.9253   33.5847  -20.6359 C   0  0  0  0  0  0  0  0  0  0  0  0
  -20.9273   33.3888  -21.5171 N   0  0  0  0  0  0  0  0  0  0  0  0
  1  2  3  0
  2  3  1  0
  3  4  1  0
  4  5  2  0
  5  6  1  0
  6  7  2  0
  7  8  1  0
  8  9  2  0
  9  4  1  0
M  END
$$$$
