
     RDKit          3D

 34 36  0  0  0  0  0  0  0  0999 V2000
  -18.3073   40.3532  -20.8625 Cl  0  0  0  0  0  0  0  0  0  0  0  0
  -18.3070   40.3536  -20.8624 Cl  0  0  0  0  0  0  0  0  0  0  0  0
  -19.8672   37.8932  -22.4008 O   0  0  0  0  0  0  0  0  0  0  0  0
  -21.0411   38.2490  -22.1315 C   0  0  0  0  0  0  0  0  0  0  0  0
  -21.2540   39.6685  -22.1202 N   0  0  0  0  0  0  0  0  0  0  0  0
  -20.2312   40.6295  -22.3888 C   0  0  0  0  0  0  0  0  0  0  0  0
  -19.0571   40.5513  -21.4080 C   0  0  0  0  0  0  0  0  0  0  0  0
  -18.0763   41.6283  -21.8334 C   0  0  0  0  0  0  0  0  0  0  0  0
  -16.8994   41.6839  -20.9962 N   0  0  0  0  0  0  0  0  0  0  0  0
  -16.0235   42.6926  -21.4863 C   0  0  0  0  0  0  0  0  0  0  0  0
  -16.4882   44.0277  -20.9544 C   0  0  0  0  0  0  0  0  0  0  0  0
  -16.1501   44.0462  -19.4795 C   0  0  0  0  0  0  0  0  0  0  0  0
  -16.3454   42.7086  -18.8305 C   0  0  0  0  0  0  0  0  0  0  0  0
  -17.2279   41.7831  -19.6145 C   0  0  0  0  0  0  0  0  0  0  0  0
  -16.8898   45.0519  -18.8809 O   0  0  0  0  0  0  0  0  0  0  0  0
  -16.2702   46.2267  -19.3708 C   0  0  0  0  0  0  0  0  0  0  0  0
  -14.8154   45.8981  -19.2954 C   0  0  0  0  0  0  0  0  0  0  0  0
  -13.7017   46.6832  -19.1834 C   0  0  0  0  0  0  0  0  0  0  0  0
  -12.4750   46.0270  -19.1220 C   0  0  0  0  0  0  0  0  0  0  0  0
  -12.3753   44.6617  -19.1705 C   0  0  0  0  0  0  0  0  0  0  0  0
  -13.5158   43.9102  -19.2834 C   0  0  0  0  0  0  0  0  0  0  0  0
  -14.7592   44.5249  -19.3480 C   0  0  0  0  0  0  0  0  0  0  0  0
  -22.1059   37.2848  -21.8515 C   0  0  1  0  0  0  0  0  0  0  0  0
  -23.1838   37.4571  -22.9336 C   0  0  0  0  0  0  0  0  0  0  0  0
  -23.0904   36.2605  -23.8229 C   0  0  0  0  0  0  0  0  0  0  0  0
  -22.1188   35.3519  -23.1282 C   0  0  0  0  0  0  0  0  0  0  0  0
  -21.7549   35.9180  -21.8771 N   0  0  0  0  0  0  0  0  0  0  0  0
  -20.5413   35.5040  -21.2959 C   0  0  0  0  0  0  0  0  0  0  0  0
  -20.6612   34.0196  -21.0300 C   0  0  0  0  0  0  0  0  0  0  0  0
  -21.1663   33.5605  -19.8329 C   0  0  0  0  0  0  0  0  0  0  0  0
  -21.2978   32.2222  -19.5325 C   0  0  0  0  0  0  0  0  0  0  0  0
  -20.9018   31.3065  -20.4826 C   0  0  0  0  0  0  0  0  0  0  0  0
  -20.3931   31.7414  -21.6884 C   0  0  0  0  0  0  0  0  0  0  0  0
  -20.2717   33.0850  -21.9647 C   0  0  0  0  0  0  0  0  0  0  0  0
  3  4  2  0
  4  5  1  0
  5  6  1  0
  6  7  1  0
  7  8  1  0
  8  9  1  0
  9 10  1  0
 10 11  1  0
 11 12  1  0
 12 13  1  0
 13 14  1  0
 12 15  1  0
 15 16  1  0
 16 17  1  0
 17 18  2  0
 18 19  1  0
 19 20  2  0
 20 21  1  0
 21 22  2  0
 23  4  1  6
 23 24  1  0
 24 25  1  0
 25 26  1  0
 26 27  1  0
 27 28  1  0
 28 29  1  0
 29 30  2  0
 30 31  1  0
 31 32  2  0
 32 33  1  0
 33 34  2  0
 14  9  1  0
 22 17  1  0
 27 23  1  0
 34 29  1  0
 22 12  1  0
M  END
$$$$
