
     RDKit          3D

 29 33  0  0  0  0  0  0  0  0999 V2000
  -20.8478   15.0028  -35.3442 C   0  0  0  0  0  0  0  0  0  0  0  0
  -21.5649   15.9527  -34.4195 C   0  0  2  0  0  0  0  0  0  0  0  0
  -22.3920   16.9233  -35.2403 C   0  0  0  0  0  0  0  0  0  0  0  0
  -23.4280   17.6104  -34.4252 C   0  0  0  0  0  0  0  0  0  0  0  0
  -24.5395   17.6958  -35.0023 O   0  0  0  0  0  0  0  0  0  0  0  0
  -23.3530   18.1714  -33.1242 N   0  0  0  0  0  0  0  0  0  0  0  0
  -22.1722   18.2511  -32.3428 C   0  0  0  0  0  0  0  0  0  0  0  0
  -22.3143   19.0892  -31.2501 C   0  0  0  0  0  0  0  0  0  0  0  0
  -21.2379   19.2579  -30.4060 C   0  0  0  0  0  0  0  0  0  0  0  0
  -20.0612   18.6149  -30.6406 C   0  0  0  0  0  0  0  0  0  0  0  0
  -19.8700   17.7564  -31.7332 C   0  0  0  0  0  0  0  0  0  0  0  0
  -18.5981   17.0800  -31.9060 C   0  0  0  0  0  0  0  0  0  0  0  0
  -17.8900   17.2650  -33.0812 C   0  0  0  0  0  0  0  0  0  0  0  0
  -16.6604   16.6803  -33.2991 C   0  0  0  0  0  0  0  0  0  0  0  0
  -16.1284   15.8871  -32.3063 C   0  0  0  0  0  0  0  0  0  0  0  0
  -16.8124   15.6856  -31.1250 C   0  0  0  0  0  0  0  0  0  0  0  0
  -18.0354   16.2823  -30.9396 C   0  0  0  0  0  0  0  0  0  0  0  0
  -16.0513   14.8523  -30.3022 C   0  0  0  0  0  0  0  0  0  0  0  0
  -16.4316   14.4142  -28.9695 C   0  0  0  0  0  0  0  0  0  0  0  0
  -17.5228   14.7814  -28.2025 C   0  0  0  0  0  0  0  0  0  0  0  0
  -17.4481   14.1114  -27.0410 N   0  0  0  0  0  0  0  0  0  0  0  0
  -16.3758   13.3341  -27.0109 N   0  0  0  0  0  0  0  0  0  0  0  0
  -15.9816   12.4625  -25.8971 C   0  0  0  0  0  0  0  0  0  0  0  0
  -15.7414   13.5048  -28.1801 C   0  0  0  0  0  0  0  0  0  0  0  0
  -14.9429   14.5801  -31.0080 N   0  0  0  0  0  0  0  0  0  0  0  0
  -14.9880   15.1860  -32.1816 N   0  0  0  0  0  0  0  0  0  0  0  0
  -13.9609   15.1077  -33.1871 C   0  0  0  0  0  0  0  0  0  0  0  0
  -20.9482   17.6015  -32.5608 C   0  0  0  0  0  0  0  0  0  0  0  0
  -20.6225   16.7339  -33.6423 N   0  0  0  0  0  0  0  0  0  0  0  0
  2  1  1  6
  2  3  1  0
  3  4  1  0
  4  5  2  0
  4  6  1  0
  6  7  1  0
  7  8  2  0
  8  9  1  0
  9 10  2  0
 10 11  1  0
 11 12  1  0
 12 13  2  0
 13 14  1  0
 14 15  2  0
 15 16  1  0
 16 17  2  0
 16 18  1  0
 18 19  1  0
 19 20  1  0
 20 21  2  0
 21 22  1  0
 22 23  1  0
 22 24  1  0
 18 25  2  0
 25 26  1  0
 26 27  1  0
 11 28  2  0
 28 29  1  0
 29  2  1  0
 28  7  1  0
 17 12  1  0
 24 19  2  0
 26 15  1  0
M  END
$$$$
