
     RDKit          3D

 30 33  0  0  0  0  0  0  0  0999 V2000
  -23.7021   41.7542  -24.7439 C   0  0  0  0  0  0  0  0  0  0  0  0
  -22.8511   42.8236  -25.3632 C   0  0  2  0  0  0  0  0  0  0  0  0
  -22.5573   42.4793  -26.8132 C   0  0  0  0  0  0  0  0  0  0  0  0
  -21.5784   43.2714  -27.3592 O   0  0  0  0  0  0  0  0  0  0  0  0
  -21.2873   44.4106  -26.6504 C   0  0  0  0  0  0  0  0  0  0  0  0
  -20.6983   44.0092  -25.3166 C   0  0  0  0  0  0  0  0  0  0  0  0
  -21.5994   43.0329  -24.7047 N   0  0  0  0  0  0  0  0  0  0  0  0
  -21.1978   42.3599  -23.5195 C   0  0  0  0  0  0  0  0  0  0  0  0
  -22.1182   41.9709  -22.5646 C   0  0  0  0  0  0  0  0  0  0  0  0
  -21.7531   41.3195  -21.4091 C   0  0  0  0  0  0  0  0  0  0  0  0
  -22.6259   40.9822  -20.5638 O   0  0  0  0  0  0  0  0  0  0  0  0
  -20.4647   41.0540  -21.2035 N   0  0  0  0  0  0  0  0  0  0  0  0
  -19.5514   41.4225  -22.1209 C   0  0  0  0  0  0  0  0  0  0  0  0
  -19.9204   42.0529  -23.2342 N   0  0  0  0  0  0  0  0  0  0  0  0
  -18.1511   41.0973  -21.8756 N   0  0  0  0  0  0  0  0  0  0  0  0
  -17.1619   42.0650  -22.1613 C   0  0  0  0  0  0  0  0  0  0  0  0
  -17.2384   43.3237  -21.3906 C   0  0  0  0  0  0  0  0  0  0  0  0
  -17.7562   44.4808  -21.9132 C   0  0  0  0  0  0  0  0  0  0  0  0
  -17.8072   45.6033  -21.1831 N   0  0  0  0  0  0  0  0  0  0  0  0
  -17.3602   45.6392  -19.9299 C   0  0  0  0  0  0  0  0  0  0  0  0
  -16.8264   44.5089  -19.3424 C   0  0  0  0  0  0  0  0  0  0  0  0
  -16.2282   44.5434  -17.6762 Cl  0  0  0  0  0  0  0  0  0  0  0  0
  -16.7727   43.3515  -20.0922 C   0  0  0  0  0  0  0  0  0  0  0  0
  -17.8977   39.7647  -21.3471 C   0  0  2  0  0  0  0  0  0  0  0  0
  -17.8973   38.7309  -22.4681 C   0  0  0  0  0  0  0  0  0  0  0  0
  -17.6940   37.4582  -22.0798 F   0  0  0  0  0  0  0  0  0  0  0  0
  -19.1169   38.9097  -23.1283 F   0  0  0  0  0  0  0  0  0  0  0  0
  -16.9276   39.0484  -23.4135 F   0  0  0  0  0  0  0  0  0  0  0  0
  -18.9889   39.3444  -20.4098 C   0  0  0  0  0  0  0  0  0  0  0  0
  -19.9517   40.4122  -20.0173 C   0  0  0  0  0  0  0  0  0  0  0  0
  2  1  1  1
  2  3  1  0
  3  4  1  0
  4  5  1  0
  5  6  1  0
  6  7  1  0
  7  8  1  0
  8  9  2  0
  9 10  1  0
 10 11  2  0
 10 12  1  0
 12 13  1  0
 13 14  2  0
 13 15  1  0
 15 16  1  0
 16 17  1  0
 17 18  2  0
 18 19  1  0
 19 20  2  0
 20 21  1  0
 21 22  1  0
 21 23  2  0
 15 24  1  0
 24 25  1  6
 25 26  1  0
 25 27  1  0
 25 28  1  0
 24 29  1  0
 29 30  1  0
  7  2  1  0
 14  8  1  0
 23 17  1  0
 30 12  1  0
M  END
$$$$
