
     RDKit          3D

 23 26  0  0  0  0  0  0  0  0999 V2000
  -19.5764   38.5510  -22.2931 C   0  0  0  0  0  0  0  0  0  0  0  0
  -18.9021   39.1857  -21.1536 C   0  0  0  0  0  0  0  0  0  0  0  0
  -17.8717   38.6002  -20.7605 O   0  0  0  0  0  0  0  0  0  0  0  0
  -19.2754   40.3947  -20.4356 C   0  0  1  0  0  0  0  0  0  0  0  0
  -19.1908   40.2560  -18.9078 C   0  0  0  0  0  0  0  0  0  0  0  0
  -18.9916   41.6909  -18.3993 C   0  0  0  0  0  0  0  0  0  0  0  0
  -19.1132   42.5350  -19.6348 C   0  0  1  0  0  0  0  0  0  0  0  0
  -18.3106   43.8085  -19.6022 C   0  0  2  0  0  0  0  0  0  0  0  0
  -18.9756   44.7177  -18.6007 C   0  0  0  0  0  0  0  0  0  0  0  0
  -18.6035   46.1583  -18.7363 C   0  0  0  0  0  0  0  0  0  0  0  0
  -18.8894   46.5594  -20.1769 C   0  0  1  0  0  0  0  0  0  0  0  0
  -18.9472   48.0048  -20.4091 C   0  0  0  0  0  0  0  0  0  0  0  0
  -17.8587   48.6165  -21.2016 C   0  0  2  0  0  0  0  0  0  0  0  0
  -18.3571   49.8029  -21.7947 O   0  0  0  0  0  0  0  0  0  0  0  0
  -17.3041   47.7815  -22.3003 C   0  0  0  0  0  0  0  0  0  0  0  0
  -17.8951   46.3902  -22.3864 C   0  0  0  0  0  0  0  0  0  0  0  0
  -17.8937   45.7954  -21.0135 C   0  0  1  0  0  0  0  0  0  0  0  0
  -16.5022   45.8178  -20.4830 C   0  0  0  0  0  0  0  0  0  0  0  0
  -18.3837   44.3650  -21.0027 C   0  0  1  0  0  0  0  0  0  0  0  0
  -17.7897   43.4965  -22.0349 C   0  0  0  0  0  0  0  0  0  0  0  0
  -18.5671   42.1826  -22.0457 C   0  0  0  0  0  0  0  0  0  0  0  0
  -18.4410   41.6136  -20.6562 C   0  0  2  0  0  0  0  0  0  0  0  0
  -17.0193   41.3143  -20.3419 C   0  0  0  0  0  0  0  0  0  0  0  0
  1  2  1  0
  2  3  2  0
  4  2  1  6
  4  5  1  0
  5  6  1  0
  7  6  1  1
  7  8  1  0
  8  9  1  1
  9 10  1  0
 11 10  1  1
 11 12  1  0
 12 13  1  0
 13 14  1  6
 13 15  1  0
 15 16  1  0
 16 17  1  0
 17 18  1  1
 17 19  1  0
 19 20  1  6
 20 21  1  0
 21 22  1  0
 22 23  1  1
 22  4  1  0
 22  7  1  0
 19  8  1  0
 17 11  1  0
M  END
$$$$
