
     RDKit          3D

 33 37  0  0  0  0  0  0  0  0999 V2000
  -16.8158   -6.4591  -27.5262 C   0  0  0  0  0  0  0  0  0  0  0  0
  -16.5046   -5.4311  -28.5503 C   0  0  0  0  0  0  0  0  0  0  0  0
  -17.5106   -4.9157  -29.3236 C   0  0  0  0  0  0  0  0  0  0  0  0
  -17.2355   -3.9429  -30.2979 C   0  0  0  0  0  0  0  0  0  0  0  0
  -18.2566   -3.4674  -31.0600 F   0  0  0  0  0  0  0  0  0  0  0  0
  -15.9445   -3.5358  -30.4423 C   0  0  0  0  0  0  0  0  0  0  0  0
  -15.5558   -2.4986  -31.4195 C   0  0  0  0  0  0  0  0  0  0  0  0
  -16.5311   -1.9120  -32.0122 O   0  0  0  0  0  0  0  0  0  0  0  0
  -14.2585   -2.1145  -31.7457 N   0  0  0  0  0  0  0  0  0  0  0  0
  -13.8830   -1.1168  -32.7077 C   0  0  0  0  0  0  0  0  0  0  0  0
  -12.6647   -0.9897  -33.2848 C   0  0  0  0  0  0  0  0  0  0  0  0
  -12.3639    0.0128  -34.2187 C   0  0  0  0  0  0  0  0  0  0  0  0
  -13.3800    0.8845  -34.5342 C   0  0  0  0  0  0  0  0  0  0  0  0
  -14.6301    0.7769  -33.9607 C   0  0  0  0  0  0  0  0  0  0  0  0
  -15.6440    1.7405  -34.3547 C   0  0  0  0  0  0  0  0  0  0  0  0
  -15.9583    2.0457  -35.6495 N   0  0  0  0  0  0  0  0  0  0  0  0
  -16.9058    2.9446  -35.5769 N   0  0  0  0  0  0  0  0  0  0  0  0
  -17.2051    3.2218  -34.3044 C   0  0  0  0  0  0  0  0  0  0  0  0
  -16.3964    2.4502  -33.5233 N   0  0  0  0  0  0  0  0  0  0  0  0
  -16.3856    2.4343  -32.0939 C   0  0  0  0  0  0  0  0  0  0  0  0
  -15.5335    3.5231  -31.4709 C   0  0  0  0  0  0  0  0  0  0  0  0
  -17.7641    2.4276  -31.4892 C   0  0  0  0  0  0  0  0  0  0  0  0
  -14.8254   -0.2042  -33.0853 N   0  0  0  0  0  0  0  0  0  0  0  0
  -14.9329   -4.0822  -29.6351 C   0  0  0  0  0  0  0  0  0  0  0  0
  -15.1896   -5.0333  -28.6802 C   0  0  0  0  0  0  0  0  0  0  0  0
  -14.1759   -5.5944  -27.8556 N   0  0  0  0  0  0  0  0  0  0  0  0
  -13.1994   -6.4060  -28.2889 C   0  0  0  0  0  0  0  0  0  0  0  0
  -12.4171   -6.7450  -27.2255 N   0  0  0  0  0  0  0  0  0  0  0  0
  -12.8944   -6.1484  -26.1083 C   0  0  0  0  0  0  0  0  0  0  0  0
  -12.3463   -6.2468  -24.7305 C   0  0  0  0  0  0  0  0  0  0  0  0
  -11.3595   -7.4279  -24.4791 C   0  0  0  0  0  0  0  0  0  0  0  0
  -10.9303   -5.9745  -24.4555 C   0  0  0  0  0  0  0  0  0  0  0  0
  -13.9939   -5.4358  -26.5320 C   0  0  0  0  0  0  0  0  0  0  0  0
  1  2  1  0
  2  3  2  0
  3  4  1  0
  4  5  1  0
  4  6  2  0
  6  7  1  0
  7  8  2  0
  7  9  1  0
  9 10  1  0
 10 11  2  0
 11 12  1  0
 12 13  2  0
 13 14  1  0
 14 15  1  0
 15 16  2  0
 16 17  1  0
 17 18  2  0
 18 19  1  0
 19 20  1  0
 20 21  1  0
 20 22  1  0
 14 23  2  0
  6 24  1  0
 24 25  2  0
 25 26  1  0
 26 27  1  0
 27 28  2  0
 28 29  1  0
 29 30  1  0
 30 31  1  0
 31 32  1  0
 29 33  2  0
 25  2  1  0
 33 26  1  0
 23 10  1  0
 32 30  1  0
 19 15  1  0
M  END
$$$$
