
     RDKit          3D

 24 27  0  0  0  0  0  0  0  0999 V2000
  -25.8098   38.7875  -28.2516 C   0  0  0  0  0  0  0  0  0  0  0  0
  -26.5855   37.5584  -28.2763 N   0  0  0  0  0  0  0  0  0  0  0  0
  -26.0641   36.6291  -29.2334 C   0  0  0  0  0  0  0  0  0  0  0  0
  -26.7957   37.0107  -26.9726 C   0  0  0  0  0  0  0  0  0  0  0  0
  -25.5918   36.9808  -26.1232 C   0  0  0  0  0  0  0  0  0  0  0  0
  -25.2834   38.0113  -25.2416 C   0  0  0  0  0  0  0  0  0  0  0  0
  -24.1620   37.9967  -24.4425 C   0  0  0  0  0  0  0  0  0  0  0  0
  -23.2968   36.9374  -24.4963 C   0  0  0  0  0  0  0  0  0  0  0  0
  -22.0875   36.8433  -23.6846 C   0  0  0  0  0  0  0  0  0  0  0  0
  -21.4463   35.6856  -23.4466 N   0  0  0  0  0  0  0  0  0  0  0  0
  -20.3713   35.9127  -22.6712 C   0  0  0  0  0  0  0  0  0  0  0  0
  -19.3606   35.1600  -22.1106 C   0  0  0  0  0  0  0  0  0  0  0  0
  -18.3826   35.7720  -21.3355 C   0  0  0  0  0  0  0  0  0  0  0  0
  -18.3658   37.1281  -21.0886 C   0  0  0  0  0  0  0  0  0  0  0  0
  -19.3844   37.8799  -21.6546 C   0  0  0  0  0  0  0  0  0  0  0  0
  -20.3648   37.2576  -22.4332 C   0  0  0  0  0  0  0  0  0  0  0  0
  -21.4231   37.8511  -23.0548 N   0  0  0  0  0  0  0  0  0  0  0  0
  -21.8839   39.1882  -23.1405 C   0  0  0  0  0  0  0  0  0  0  0  0
  -21.6271   40.0673  -21.9607 C   0  0  0  0  0  0  0  0  0  0  0  0
  -20.2388   40.3054  -21.6723 N   0  0  0  0  0  0  0  0  0  0  0  0
  -19.2838   39.3057  -21.3373 C   0  0  0  0  0  0  0  0  0  0  0  0
  -18.2511   39.6566  -20.7114 O   0  0  0  0  0  0  0  0  0  0  0  0
  -23.5937   35.9122  -25.3663 C   0  0  0  0  0  0  0  0  0  0  0  0
  -24.7128   35.9195  -26.1685 C   0  0  0  0  0  0  0  0  0  0  0  0
  1  2  1  0
  2  3  1  0
  2  4  1  0
  4  5  1  0
  5  6  2  0
  6  7  1  0
  7  8  2  0
  8  9  1  0
  9 10  2  0
 10 11  1  0
 11 12  2  0
 12 13  1  0
 13 14  2  0
 14 15  1  0
 15 16  2  0
 16 17  1  0
 17 18  1  0
 18 19  1  0
 19 20  1  0
 20 21  1  0
 21 22  2  0
  8 23  1  0
 23 24  2  0
 24  5  1  0
 17  9  1  0
 16 11  1  0
 21 15  1  0
M  END
$$$$
