
     RDKit          3D

 28 30  0  0  0  0  0  0  0  0999 V2000
  -29.0591   18.7029  -25.0604 C   0  0  0  0  0  0  0  0  0  0  0  0
  -27.6742   18.4508  -24.7361 N   0  0  0  0  0  0  0  0  0  0  0  0
  -27.3805   17.3801  -23.8473 C   0  0  0  0  0  0  0  0  0  0  0  0
  -26.0956   17.1270  -23.5113 N   0  0  0  0  0  0  0  0  0  0  0  0
  -25.7941   16.1235  -22.6765 C   0  0  0  0  0  0  0  0  0  0  0  0
  -24.4910   15.8036  -22.2789 N   0  0  0  0  0  0  0  0  0  0  0  0
  -24.2693   14.7444  -21.3200 C   0  0  0  0  0  0  0  0  0  0  0  0
  -24.1212   13.4358  -22.0350 C   0  0  0  0  0  0  0  0  0  0  0  0
  -24.1137   13.3607  -23.4102 C   0  0  0  0  0  0  0  0  0  0  0  0
  -23.9744   12.1615  -24.0771 C   0  0  0  0  0  0  0  0  0  0  0  0
  -23.8349   10.9667  -23.3817 C   0  0  0  0  0  0  0  0  0  0  0  0
  -23.6906    9.7329  -24.0768 N   0  0  0  0  0  0  0  0  0  0  0  0
  -24.5589    8.3314  -23.6265 S   0  0  0  0  0  6  0  0  0  0  0  0
  -26.2982    8.6487  -23.9498 C   0  0  0  0  0  0  0  0  0  0  0  0
  -24.3917    7.9925  -22.1631 O   0  0  0  0  0  0  0  0  0  0  0  0
  -24.1723    7.1694  -24.4926 O   0  0  0  0  0  0  0  0  0  0  0  0
  -23.8429   11.0443  -22.0062 C   0  0  0  0  0  0  0  0  0  0  0  0
  -23.9841   12.2616  -21.3296 C   0  0  0  0  0  0  0  0  0  0  0  0
  -23.9841   12.2750  -19.5926 Cl  0  0  0  0  0  0  0  0  0  0  0  0
  -26.8459   15.3517  -22.1675 C   0  0  0  0  0  0  0  0  0  0  0  0
  -28.1511   15.6056  -22.5062 C   0  0  0  0  0  0  0  0  0  0  0  0
  -29.2409   14.7876  -21.9594 C   0  0  0  0  0  0  0  0  0  0  0  0
  -28.9426   13.6496  -21.2303 C   0  0  0  0  0  0  0  0  0  0  0  0
  -29.9796   12.8735  -20.7120 C   0  0  0  0  0  0  0  0  0  0  0  0
  -31.2892   13.2552  -20.9361 C   0  0  0  0  0  0  0  0  0  0  0  0
  -31.5610   14.3811  -21.6580 C   0  0  0  0  0  0  0  0  0  0  0  0
  -30.5291   15.1084  -22.1445 N   0  0  0  0  0  0  0  0  0  0  0  0
  -28.3976   16.6179  -23.3425 N   0  0  0  0  0  0  0  0  0  0  0  0
  1  2  1  0
  2  3  1  0
  3  4  2  0
  4  5  1  0
  5  6  1  0
  6  7  1  0
  7  8  1  0
  8  9  2  0
  9 10  1  0
 10 11  2  0
 11 12  1  0
 12 13  1  0
 13 14  1  0
 13 15  2  0
 13 16  2  0
 11 17  1  0
 17 18  2  0
 18 19  1  0
  5 20  2  0
 20 21  1  0
 21 22  1  0
 22 23  2  0
 23 24  1  0
 24 25  2  0
 25 26  1  0
 26 27  2  0
 21 28  2  0
 28  3  1  0
 18  8  1  0
 27 22  1  0
M  END
$$$$
