
     RDKit          3D

 29 33  0  0  0  0  0  0  0  0999 V2000
  -20.8336   23.5651  -35.4140 C   0  0  0  0  0  0  0  0  0  0  0  0
  -22.0709   24.4248  -35.5366 C   0  0  0  0  0  0  0  0  0  0  0  0
  -22.7943   24.2239  -36.8183 C   0  0  0  0  0  0  0  0  0  0  0  0
  -22.0783   23.9632  -37.9946 C   0  0  0  0  0  0  0  0  0  0  0  0
  -22.7449   23.7798  -39.1797 C   0  0  0  0  0  0  0  0  0  0  0  0
  -24.0946   23.8373  -39.2854 N   0  0  0  0  0  0  0  0  0  0  0  0
  -24.7902   24.0868  -38.1642 C   0  0  0  0  0  0  0  0  0  0  0  0
  -26.1839   24.1441  -38.2878 C   0  0  0  0  0  0  0  0  0  0  0  0
  -26.9420   24.3961  -37.1729 C   0  0  0  0  0  0  0  0  0  0  0  0
  -26.3389   24.5882  -35.9605 C   0  0  0  0  0  0  0  0  0  0  0  0
  -27.1413   24.8385  -34.8680 O   0  0  0  0  0  0  0  0  0  0  0  0
  -24.9416   24.5278  -35.8533 C   0  0  0  0  0  0  0  0  0  0  0  0
  -24.1631   24.2779  -36.9485 C   0  0  0  0  0  0  0  0  0  0  0  0
  -21.7181   23.5268  -40.1933 C   0  0  0  0  0  0  0  0  0  0  0  0
  -21.8133   23.2735  -41.5578 C   0  0  0  0  0  0  0  0  0  0  0  0
  -20.6855   23.0560  -42.3427 C   0  0  0  0  0  0  0  0  0  0  0  0
  -19.4457   23.0929  -41.7534 C   0  0  0  0  0  0  0  0  0  0  0  0
  -19.3892   23.3465  -40.3996 C   0  0  0  0  0  0  0  0  0  0  0  0
  -18.2530   23.3809  -39.8552 O   0  0  0  0  0  0  0  0  0  0  0  0
  -20.5087   23.5583  -39.6414 N   0  0  0  0  0  0  0  0  0  0  0  0
  -20.6364   23.8385  -38.2190 C   0  0  0  0  0  0  0  0  0  0  0  0
  -18.1728   22.8721  -42.5236 C   0  0  0  0  0  0  0  0  0  0  0  0
  -18.4232   22.5954  -43.8546 O   0  0  0  0  0  0  0  0  0  0  0  0
  -19.6455   22.3603  -44.4474 C   0  0  0  0  0  0  0  0  0  0  0  0
  -19.7414   21.7661  -45.5713 O   0  0  0  0  0  0  0  0  0  0  0  0
  -20.8701   22.7922  -43.7897 C   0  0  1  0  0  0  0  0  0  0  0  0
  -21.8956   21.8630  -44.0041 O   0  0  0  0  0  0  0  0  0  0  0  0
  -21.3426   24.1250  -44.3917 C   0  0  0  0  0  0  0  0  0  0  0  0
  -21.3846   23.9813  -45.8968 C   0  0  0  0  0  0  0  0  0  0  0  0
  1  2  1  0
  2  3  1  0
  3  4  2  0
  4  5  1  0
  5  6  2  0
  6  7  1  0
  7  8  2  0
  8  9  1  0
  9 10  2  0
 10 11  1  0
 10 12  1  0
 12 13  2  0
  5 14  1  0
 14 15  2  0
 15 16  1  0
 16 17  2  0
 17 18  1  0
 18 19  2  0
 18 20  1  0
 20 21  1  0
 17 22  1  0
 22 23  1  0
 23 24  1  0
 24 25  2  0
 24 26  1  0
 26 27  1  1
 26 28  1  0
 28 29  1  0
 13  3  1  0
 20 14  1  0
 21  4  1  0
 13  7  1  0
 26 16  1  0
M  END
$$$$
