
     RDKit          3D

  9  9  0  0  0  0  0  0  0  0999 V2000
  -13.1139   14.1582  -31.1199 C   0  0  0  0  0  0  0  0  0  0  0  0
  -14.0569   13.7436  -30.0306 C   0  0  0  0  0  0  0  0  0  0  0  0
  -13.6344   12.8879  -29.0389 C   0  0  0  0  0  0  0  0  0  0  0  0
  -14.5225   12.5237  -28.0504 C   0  0  0  0  0  0  0  0  0  0  0  0
  -14.0313   11.6032  -27.0030 C   0  0  0  0  0  0  0  0  0  0  0  0
  -15.7789   13.0012  -28.0624 N   0  0  0  0  0  0  0  0  0  0  0  0
  -16.2474   13.8394  -29.0050 C   0  0  0  0  0  0  0  0  0  0  0  0
  -17.5840   14.3266  -28.9883 N   0  0  0  0  0  0  0  0  0  0  0  0
  -15.3510   14.1987  -29.9909 C   0  0  0  0  0  0  0  0  0  0  0  0
  1  2  1  0
  2  3  2  0
  3  4  1  0
  4  5  1  0
  4  6  2  0
  6  7  1  0
  7  8  1  0
  7  9  2  0
  9  2  1  0
M  END
$$$$
