
     RDKit          3D

 26 27  0  0  0  0  0  0  0  0999 V2000
  -17.3760   40.3053  -20.3591 O   0  0  0  0  0  0  0  0  0  0  0  0
  -18.6302   40.3093  -20.3611 C   0  0  0  0  0  0  0  0  0  0  0  0
  -19.3106   39.1380  -20.7303 N   0  0  0  0  0  0  0  0  0  0  0  0
  -18.5874   38.0294  -21.0456 O   0  0  0  0  0  0  0  0  0  0  0  0
  -19.3089   37.1850  -21.8918 C   0  0  0  0  0  0  0  0  0  0  0  0
  -19.8959   36.0555  -21.0727 C   0  0  2  0  0  0  0  0  0  0  0  0
  -18.9280   35.2962  -20.4484 O   0  0  0  0  0  0  0  0  0  0  0  0
  -20.7726   35.2435  -21.9962 C   0  0  0  0  0  0  0  0  0  0  0  0
  -22.0563   35.0846  -21.5441 O   0  0  0  0  0  0  0  0  0  0  0  0
  -19.3314   41.5092  -19.9866 C   0  0  0  0  0  0  0  0  0  0  0  0
  -20.7035   41.5965  -20.0494 C   0  0  0  0  0  0  0  0  0  0  0  0
  -21.3799   42.7645  -19.6845 C   0  0  0  0  0  0  0  0  0  0  0  0
  -20.6473   43.8413  -19.2556 C   0  0  0  0  0  0  0  0  0  0  0  0
  -21.2559   44.9773  -18.8973 F   0  0  0  0  0  0  0  0  0  0  0  0
  -19.2529   43.7691  -19.1859 C   0  0  0  0  0  0  0  0  0  0  0  0
  -18.5956   44.8813  -18.7497 F   0  0  0  0  0  0  0  0  0  0  0  0
  -18.6040   42.6222  -19.5453 C   0  0  0  0  0  0  0  0  0  0  0  0
  -17.2031   42.5350  -19.4804 N   0  0  0  0  0  0  0  0  0  0  0  0
  -16.3428   43.5204  -20.0334 C   0  0  0  0  0  0  0  0  0  0  0  0
  -16.8081   44.4806  -20.8889 C   0  0  0  0  0  0  0  0  0  0  0  0
  -15.9390   45.4355  -21.4161 C   0  0  0  0  0  0  0  0  0  0  0  0
  -14.5915   45.4392  -21.0917 C   0  0  0  0  0  0  0  0  0  0  0  0
  -13.2418   46.8486  -21.8534 I   0  0  0  0  0  0  0  0  0  0  0  0
  -14.1269   44.4606  -20.2222 C   0  0  0  0  0  0  0  0  0  0  0  0
  -15.0054   43.5340  -19.7191 C   0  0  0  0  0  0  0  0  0  0  0  0
  -14.5205   42.5938  -18.8743 F   0  0  0  0  0  0  0  0  0  0  0  0
  1  2  2  0
  2  3  1  0
  3  4  1  0
  4  5  1  0
  5  6  1  0
  6  7  1  6
  6  8  1  0
  8  9  1  0
  2 10  1  0
 10 11  2  0
 11 12  1  0
 12 13  2  0
 13 14  1  0
 13 15  1  0
 15 16  1  0
 15 17  2  0
 17 18  1  0
 18 19  1  0
 19 20  2  0
 20 21  1  0
 21 22  2  0
 22 23  1  0
 22 24  1  0
 24 25  2  0
 25 26  1  0
 17 10  1  0
 25 19  1  0
M  END
$$$$
