
     RDKit          3D

 30 33  0  0  0  0  0  0  0  0999 V2000
  -15.9771   19.8458  -38.5517 C   0  0  0  0  0  0  0  0  0  0  0  0
  -17.0434   19.0446  -38.4773 C   0  0  0  0  0  0  0  0  0  0  0  0
  -17.2370   18.1892  -37.3255 C   0  0  0  0  0  0  0  0  0  0  0  0
  -16.1787   17.7273  -36.6457 C   0  0  0  0  0  0  0  0  0  0  0  0
  -16.2856   17.1354  -35.3285 C   0  0  0  0  0  0  0  0  0  0  0  0
  -16.0956   17.8987  -34.2571 C   0  0  0  0  0  0  0  0  0  0  0  0
  -15.9891   19.3535  -34.2835 C   0  0  0  0  0  0  0  0  0  0  0  0
  -16.2444   20.0441  -32.9952 C   0  0  0  0  0  0  0  0  0  0  0  0
  -16.5076   19.2247  -31.7988 C   0  0  0  0  0  0  0  0  0  0  0  0
  -17.0321   17.8434  -32.0516 C   0  0  1  0  0  0  0  0  0  0  0  0
  -18.3057   17.9004  -32.7951 C   0  0  0  0  0  0  0  0  0  0  0  0
  -15.9790   17.1988  -32.9733 C   0  0  1  0  0  0  0  0  0  0  0  0
  -16.3953   15.7775  -32.9669 C   0  0  0  0  0  0  0  0  0  0  0  0
  -16.7331   15.5420  -31.4866 C   0  0  0  0  0  0  0  0  0  0  0  0
  -16.9243   16.9255  -30.9031 C   0  0  2  0  0  0  0  0  0  0  0  0
  -17.9585   16.8909  -29.8670 C   0  0  2  0  0  0  0  0  0  0  0  0
  -17.5110   17.1125  -28.4456 C   0  0  0  0  0  0  0  0  0  0  0  0
  -18.8947   15.7416  -29.9750 C   0  0  0  0  0  0  0  0  0  0  0  0
  -19.2889   15.0938  -28.9055 C   0  0  0  0  0  0  0  0  0  0  0  0
  -20.1687   13.8685  -28.9809 C   0  0  1  0  0  0  0  0  0  0  0  0
  -21.4801   14.1901  -29.2090 O   0  0  0  0  0  0  0  0  0  0  0  0
  -19.6351   13.0459  -30.1313 C   0  0  0  0  0  0  0  0  0  0  0  0
  -19.0456   11.7161  -29.9190 C   0  0  0  0  0  0  0  0  0  0  0  0
  -20.4478   11.8122  -30.4574 C   0  0  0  0  0  0  0  0  0  0  0  0
  -18.5913   17.8267  -36.8968 C   0  0  0  0  0  0  0  0  0  0  0  0
  -19.6661   18.0809  -37.8882 C   0  0  2  0  0  0  0  0  0  0  0  0
  -19.9948   16.8713  -38.5145 O   0  0  0  0  0  0  0  0  0  0  0  0
  -19.4007   19.1707  -38.8798 C   0  0  0  0  0  0  0  0  0  0  0  0
  -18.0585   19.0082  -39.5625 C   0  0  2  0  0  0  0  0  0  0  0  0
  -18.0042   17.7801  -40.1756 O   0  0  0  0  0  0  0  0  0  0  0  0
  1  2  2  0
  2  3  1  0
  3  4  2  0
  4  5  1  0
  5  6  2  0
  6  7  1  0
  7  8  1  0
  8  9  1  0
  9 10  1  0
 10 11  1  6
 10 12  1  0
 12 13  1  6
 13 14  1  0
 15 14  1  6
 15 16  1  0
 16 17  1  1
 16 18  1  0
 18 19  2  0
 19 20  1  0
 20 21  1  6
 20 22  1  0
 22 23  1  0
 23 24  1  0
  3 25  1  0
 25 26  1  0
 26 27  1  6
 26 28  1  0
 28 29  1  0
 29 30  1  1
 29  2  1  0
 12  6  1  0
 24 22  1  0
 15 10  1  0
M  END
$$$$
