
     RDKit          3D

 19 19  0  0  0  0  0  0  0  0999 V2000
  -26.3535    9.3928  -25.7496 C   0  0  0  0  0  0  0  0  0  0  0  0
  -26.1893    9.6242  -24.2536 C   0  0  0  0  0  0  0  0  0  0  0  0
  -25.2186    8.6470  -23.7987 C   0  0  0  0  0  0  0  0  0  0  0  0
  -26.1978   11.0150  -24.0109 C   0  0  0  0  0  0  0  0  0  0  0  0
  -25.4213   11.8267  -24.8632 C   0  0  0  0  0  0  0  0  0  0  0  0
  -25.3346   13.1816  -24.7880 C   0  0  0  0  0  0  0  0  0  0  0  0
  -26.0429   13.8489  -23.8209 C   0  0  0  0  0  0  0  0  0  0  0  0
  -26.0060   15.3036  -23.6718 C   0  0  0  0  0  0  0  0  0  0  0  0
  -25.3468   15.9486  -24.5232 O   0  0  0  0  0  0  0  0  0  0  0  0
  -26.6568   16.0063  -22.6454 N   0  0  0  0  0  0  0  0  0  0  0  0
  -26.7721   17.4239  -22.6829 C   0  0  0  0  0  0  0  0  0  0  0  0
  -27.6604   18.1008  -22.1451 N   0  0  0  0  0  0  0  0  0  0  0  0
  -25.7406   18.1073  -23.4257 N   0  0  0  0  0  0  0  0  0  0  0  0
  -26.8128   13.0924  -22.9682 C   0  0  0  0  0  0  0  0  0  0  0  0
  -26.8996   11.6844  -23.0493 C   0  0  0  0  0  0  0  0  0  0  0  0
  -27.8333   10.7941  -21.9387 S   0  0  0  0  0  6  0  0  0  0  0  0
  -29.5614   10.8395  -22.0384 C   0  0  0  0  0  0  0  0  0  0  0  0
  -27.5002    9.3095  -22.2251 O   0  0  0  0  0  0  0  0  0  0  0  0
  -27.2954   10.8383  -20.5094 O   0  0  0  0  0  0  0  0  0  0  0  0
  1  2  1  0
  2  3  1  0
  2  4  1  0
  4  5  2  0
  5  6  1  0
  6  7  2  0
  7  8  1  0
  8  9  2  0
  8 10  1  0
 10 11  1  0
 11 12  2  0
 11 13  1  0
  7 14  1  0
 14 15  2  0
 15 16  1  0
 16 17  1  0
 16 18  2  0
 16 19  2  0
 15  4  1  0
M  END
$$$$
