
     RDKit          3D

 27 29  0  0  0  0  0  0  0  0999 V2000
  -20.9956   34.1843  -25.6455 C   0  0  0  0  0  0  0  0  0  0  0  0
  -20.8950   34.4086  -24.1568 C   0  0  0  0  0  0  0  0  0  0  0  0
  -19.4730   34.6970  -23.7296 C   0  0  0  0  0  0  0  0  0  0  0  0
  -19.4787   35.1677  -21.9989 S   0  0  0  0  0  6  0  0  0  0  0  0
  -20.3358   34.1470  -21.2962 O   0  0  0  0  0  0  0  0  0  0  0  0
  -18.0637   35.0862  -21.5342 O   0  0  0  0  0  0  0  0  0  0  0  0
  -20.0536   36.7555  -21.7688 N   0  0  0  0  0  0  0  0  0  0  0  0
  -19.3103   37.9171  -22.1076 C   0  0  0  0  0  0  0  0  0  0  0  0
  -17.9715   37.7898  -22.3895 C   0  0  0  0  0  0  0  0  0  0  0  0
  -17.2632   38.9250  -22.7227 C   0  0  0  0  0  0  0  0  0  0  0  0
  -17.9001   40.1468  -22.7663 C   0  0  0  0  0  0  0  0  0  0  0  0
  -17.2153   41.2897  -23.0944 F   0  0  0  0  0  0  0  0  0  0  0  0
  -19.2521   40.3099  -22.4869 C   0  0  0  0  0  0  0  0  0  0  0  0
  -19.8750   41.6026  -22.5622 C   0  0  0  0  0  0  0  0  0  0  0  0
  -20.3206   41.9809  -23.7073 O   0  0  0  0  0  0  0  0  0  0  0  0
  -20.0682   42.5484  -21.4984 C   0  0  0  0  0  0  0  0  0  0  0  0
  -20.6820   43.7824  -21.5388 C   0  0  0  0  0  0  0  0  0  0  0  0
  -20.6312   44.2708  -20.2881 N   0  0  0  0  0  0  0  0  0  0  0  0
  -20.0176   43.4087  -19.4609 C   0  0  0  0  0  0  0  0  0  0  0  0
  -19.7311   43.4456  -18.1453 N   0  0  0  0  0  0  0  0  0  0  0  0
  -19.0981   42.4557  -17.5036 C   0  0  0  0  0  0  0  0  0  0  0  0
  -18.7133   41.3354  -18.2095 C   0  0  0  0  0  0  0  0  0  0  0  0
  -17.8907   40.0674  -17.3375 Cl  0  0  0  0  0  0  0  0  0  0  0  0
  -18.9901   41.2630  -19.5581 C   0  0  0  0  0  0  0  0  0  0  0  0
  -19.6434   42.2996  -20.1888 C   0  0  0  0  0  0  0  0  0  0  0  0
  -19.9377   39.1653  -22.1578 C   0  0  0  0  0  0  0  0  0  0  0  0
  -21.2839   39.2382  -21.8835 F   0  0  0  0  0  0  0  0  0  0  0  0
  1  2  1  0
  2  3  1  0
  3  4  1  0
  4  5  2  0
  4  6  2  0
  4  7  1  0
  7  8  1  0
  8  9  2  0
  9 10  1  0
 10 11  2  0
 11 12  1  0
 11 13  1  0
 13 14  1  0
 14 15  2  0
 14 16  1  0
 16 17  2  0
 17 18  1  0
 18 19  1  0
 19 20  2  0
 20 21  1  0
 21 22  2  0
 22 23  1  0
 22 24  1  0
 24 25  2  0
 13 26  2  0
 26 27  1  0
 26  8  1  0
 25 16  1  0
 25 19  1  0
M  END
$$$$
