
     RDKit          3D

 31 33  0  0  0  0  0  0  0  0999 V2000
  -16.8624   42.4151  -20.8039 C   0  0  0  0  0  0  0  0  0  0  0  0
  -17.8498   43.2938  -21.4861 C   0  0  0  0  0  0  0  0  0  0  0  0
  -17.8593   44.6182  -21.4719 O   0  0  0  0  0  0  0  0  0  0  0  0
  -18.8454   45.0801  -22.1587 N   0  0  0  0  0  0  0  0  0  0  0  0
  -19.5682   44.0797  -22.6836 C   0  0  0  0  0  0  0  0  0  0  0  0
  -20.7501   44.1511  -23.5149 C   0  0  0  0  0  0  0  0  0  0  0  0
  -22.0134   44.1718  -22.9588 C   0  0  0  0  0  0  0  0  0  0  0  0
  -22.1951   44.1105  -21.2172 Cl  0  0  0  0  0  0  0  0  0  0  0  0
  -23.1563   44.2392  -23.7155 C   0  0  0  0  0  0  0  0  0  0  0  0
  -23.0819   44.2899  -25.0922 C   0  0  0  0  0  0  0  0  0  0  0  0
  -21.8310   44.2709  -25.6783 C   0  0  0  0  0  0  0  0  0  0  0  0
  -20.6865   44.2027  -24.9032 C   0  0  0  0  0  0  0  0  0  0  0  0
  -19.1483   44.1824  -25.7056 Cl  0  0  0  0  0  0  0  0  0  0  0  0
  -18.9215   42.9089  -22.2470 C   0  0  0  0  0  0  0  0  0  0  0  0
  -19.4107   41.5949  -22.6209 C   0  0  0  0  0  0  0  0  0  0  0  0
  -20.4918   41.4854  -23.3203 O   0  0  0  0  0  0  0  0  0  0  0  0
  -18.8092   40.3563  -22.2917 N   0  0  0  0  0  0  0  0  0  0  0  0
  -19.4246   39.0852  -22.7433 C   0  0  0  0  0  0  0  0  0  0  0  0
  -18.3944   38.3112  -23.5069 C   0  0  0  0  0  0  0  0  0  0  0  0
  -17.6451   38.6821  -24.4520 O   0  0  0  0  0  0  0  0  0  0  0  0
  -18.6245   37.1216  -22.7679 N   0  0  0  0  0  0  0  0  0  0  0  0
  -19.3173   37.9579  -21.7644 C   0  0  0  0  0  0  0  0  0  0  0  0
  -20.8312   36.9393  -21.5810 S   0  0  0  0  0  0  0  0  0  0  0  0
  -20.1596   35.3759  -22.2774 C   0  0  0  0  0  0  0  0  0  0  0  0
  -20.4179   34.2121  -21.3894 C   0  0  0  0  0  0  0  0  0  0  0  0
  -20.7103   35.2363  -23.6611 C   0  0  0  0  0  0  0  0  0  0  0  0
  -18.6709   35.7529  -22.3096 C   0  0  0  0  0  0  0  0  0  0  0  0
  -18.1457   35.7132  -20.9440 C   0  0  0  0  0  0  0  0  0  0  0  0
  -16.9127   35.7867  -20.7516 O   0  0  0  0  0  0  0  0  0  0  0  0
  -18.9896   35.5957  -19.8581 O   0  0  0  0  0  1  0  0  0  0  0  0
  -19.7467   39.9038  -22.7291 Na  0  0  0  0  0 15  0  0  0  0  0  0
  1  2  1  0
  2  3  1  0
  3  4  1  0
  4  5  2  0
  5  6  1  0
  6  7  2  0
  7  8  1  0
  7  9  1  0
  9 10  2  0
 10 11  1  0
 11 12  2  0
 12 13  1  0
  5 14  1  0
 14 15  1  0
 15 16  2  0
 15 17  1  0
 17 18  1  0
 18 19  1  0
 19 20  2  0
 19 21  1  0
 21 22  1  0
 22 23  1  0
 23 24  1  0
 24 25  1  0
 24 26  1  0
 24 27  1  0
 27 28  1  0
 28 29  2  0
 28 30  1  0
 14  2  2  0
 22 18  1  0
 12  6  1  0
 27 21  1  0
M  CHG  2  30  -1  31   1
M  END
$$$$
