
     RDKit          3D

 26 27  0  0  0  0  0  0  0  0999 V2000
  -16.8237   43.1681  -17.7360 C   0  0  0  0  0  0  0  0  0  0  0  0
  -15.8123   43.8686  -18.6704 C   0  0  0  0  0  0  0  0  0  0  0  0
  -14.5301   43.9508  -18.2920 C   0  0  0  0  0  0  0  0  0  0  0  0
  -13.6790   44.6760  -19.0982 C   0  0  0  0  0  0  0  0  0  0  0  0
  -14.7042   45.2525  -20.4151 S   0  0  0  0  0  0  0  0  0  0  0  0
  -16.2500   44.4590  -19.7824 C   0  0  0  0  0  0  0  0  0  0  0  0
  -17.4355   44.4543  -20.5929 C   0  0  0  0  0  0  0  0  0  0  0  0
  -18.1244   43.3915  -20.8624 C   0  0  0  0  0  0  0  0  0  0  0  0
  -17.8232   42.0201  -20.4131 C   0  0  0  0  0  0  0  0  0  0  0  0
  -17.8729   41.1077  -21.6511 C   0  0  0  0  0  0  0  0  0  0  0  0
  -17.5684   39.7747  -21.2600 N   0  0  0  0  0  0  0  0  0  0  0  0
  -17.5323   38.9443  -22.4761 C   0  0  0  0  0  0  0  0  0  0  0  0
  -18.9025   38.7724  -23.0560 C   0  0  0  0  0  0  0  0  0  0  0  0
  -19.9069   38.2673  -22.0738 C   0  0  0  0  0  0  0  0  0  0  0  0
  -19.9259   39.2357  -20.8870 C   0  0  1  0  0  0  0  0  0  0  0  0
  -20.8456   38.6654  -19.8809 C   0  0  0  0  0  0  0  0  0  0  0  0
  -21.8577   39.3240  -19.5222 O   0  0  0  0  0  0  0  0  0  0  0  0
  -20.6429   37.4189  -19.3041 O   0  0  0  0  0  0  0  0  0  0  0  0
  -18.5290   39.2141  -20.3308 C   0  0  0  0  0  0  0  0  0  0  0  0
  -17.8996   45.7247  -21.1652 C   0  0  0  0  0  0  0  0  0  0  0  0
  -19.1324   45.7569  -22.4983 S   0  0  0  0  0  0  0  0  0  0  0  0
  -19.2269   47.5296  -22.5861 C   0  0  0  0  0  0  0  0  0  0  0  0
  -18.3573   47.9470  -21.6408 C   0  0  0  0  0  0  0  0  0  0  0  0
  -17.6846   47.0140  -20.9185 C   0  0  0  0  0  0  0  0  0  0  0  0
  -16.7605   47.4837  -19.7967 C   0  0  0  0  0  0  0  0  0  0  0  0
  -18.0388   41.8365  -20.9277 Cl  0  0  0  0  0  0  0  0  0  0  0  0
  1  2  1  0
  2  3  1  0
  3  4  2  0
  4  5  1  0
  5  6  1  0
  6  7  1  0
  7  8  2  3
  8  9  1  0
  9 10  1  0
 10 11  1  0
 11 12  1  0
 12 13  1  0
 13 14  1  0
 14 15  1  0
 15 16  1  1
 16 17  2  0
 16 18  1  0
 15 19  1  0
  7 20  1  0
 20 21  1  0
 21 22  1  0
 22 23  2  0
 23 24  1  0
 24 25  1  0
  6  2  2  0
 19 11  1  0
 24 20  2  0
M  END
$$$$
