
     RDKit          3D

 11 12  0  0  0  0  0  0  0  0999 V2000
  -19.7143   39.8484  -22.3328 C   0  0  0  0  0  0  0  0  0  0  0  0
  -19.6838   38.8578  -21.3728 C   0  0  0  0  0  0  0  0  0  0  0  0
  -19.0316   39.1319  -20.2289 N   0  0  0  0  0  0  0  0  0  0  0  0
  -18.4216   40.3118  -19.9932 C   0  0  0  0  0  0  0  0  0  0  0  0
  -18.4297   41.3268  -20.9275 C   0  0  0  0  0  0  0  0  0  0  0  0
  -17.7642   42.5907  -20.6492 C   0  0  0  0  0  0  0  0  0  0  0  0
  -17.6355   43.6414  -21.5342 C   0  0  0  0  0  0  0  0  0  0  0  0
  -16.9530   44.6490  -20.9131 N   0  0  0  0  0  0  0  0  0  0  0  0
  -16.6754   44.2202  -19.6840 N   0  0  0  0  0  0  0  0  0  0  0  0
  -17.1552   42.9986  -19.5231 N   0  0  0  0  0  0  0  0  0  0  0  0
  -19.0902   41.0772  -22.1112 C   0  0  0  0  0  0  0  0  0  0  0  0
  1  2  2  0
  2  3  1  0
  3  4  2  0
  4  5  1  0
  5  6  1  0
  6  7  2  0
  7  8  1  0
  8  9  2  0
  9 10  1  0
  5 11  2  0
 11  1  1  0
 10  6  1  0
M  END
$$$$
