
     RDKit          3D

 27 29  0  0  0  0  0  0  0  0999 V2000
  -17.3146   34.9827  -22.9874 C   0  0  0  0  0  0  0  0  0  0  0  0
  -18.2102   35.8689  -22.4025 C   0  0  0  0  0  0  0  0  0  0  0  0
  -19.0035   36.6769  -21.8608 C   0  0  0  0  0  0  0  0  0  0  0  0
  -19.9289   37.5912  -21.2531 C   0  0  0  0  0  0  0  0  0  0  0  0
  -20.7409   37.3458  -20.3532 O   0  0  0  0  0  0  0  0  0  0  0  0
  -19.9712   38.9799  -21.7097 N   0  0  0  0  0  0  0  0  0  0  0  0
  -18.8341   39.6130  -22.2162 C   0  0  1  0  0  0  0  0  0  0  0  0
  -18.6813   40.1523  -23.5638 C   0  0  0  0  0  0  0  0  0  0  0  0
  -19.1302   41.5538  -23.8127 C   0  0  0  0  0  0  0  0  0  0  0  0
  -19.0151   42.4893  -22.6809 C   0  0  0  0  0  0  0  0  0  0  0  0
  -18.3102   42.0018  -21.5672 N   0  0  0  0  0  0  0  0  0  0  0  0
  -17.5506   42.7639  -20.6025 C   0  0  0  0  0  0  0  0  0  0  0  0
  -17.1367   42.0953  -19.4406 C   0  0  0  0  0  0  0  0  0  0  0  0
  -17.5456   40.8048  -19.3092 F   0  0  0  0  0  0  0  0  0  0  0  0
  -16.3301   42.6846  -18.5136 C   0  0  0  0  0  0  0  0  0  0  0  0
  -15.8648   43.9835  -18.6652 C   0  0  0  0  0  0  0  0  0  0  0  0
  -14.9590   44.5494  -17.6984 C   0  0  0  0  0  0  0  0  0  0  0  0
  -14.3729   44.1108  -16.5233 N   0  0  0  0  0  0  0  0  0  0  0  0
  -14.5872   45.8051  -17.9895 O   0  0  0  0  0  0  0  0  0  0  0  0
  -16.2817   44.6446  -19.8199 C   0  0  0  0  0  0  0  0  0  0  0  0
  -15.9929   45.9059  -20.2347 N   0  0  0  0  0  0  0  0  0  0  0  0
  -16.6209   46.1212  -21.4244 C   0  0  0  0  0  0  0  0  0  0  0  0
  -16.5679   47.4158  -22.1361 C   0  0  0  0  0  0  0  0  0  0  0  0
  -17.3012   44.9870  -21.7419 C   0  0  0  0  0  0  0  0  0  0  0  0
  -18.1188   44.8361  -22.9825 C   0  0  0  0  0  0  0  0  0  0  0  0
  -17.1149   44.0470  -20.7771 C   0  0  0  0  0  0  0  0  0  0  0  0
  -18.3732   40.6122  -21.1930 C   0  0  0  0  0  0  0  0  0  0  0  0
  1  2  1  0
  2  3  3  0
  3  4  1  0
  4  5  2  0
  4  6  1  0
  7  6  1  1
  7  8  1  0
  8  9  1  0
  9 10  1  0
 10 11  1  0
 11 12  1  0
 12 13  2  0
 13 14  1  0
 13 15  1  0
 15 16  2  0
 16 17  1  0
 17 18  1  0
 17 19  2  0
 16 20  1  0
 20 21  1  0
 21 22  1  0
 22 23  1  0
 22 24  2  0
 24 25  1  0
 24 26  1  0
 11 27  1  0
 27  7  1  0
 26 12  1  0
 26 20  2  0
M  END
$$$$
