
     RDKit          3D

 30 33  0  0  0  0  0  0  0  0999 V2000
  -15.5970   48.1343  -19.2994 C   0  0  0  0  0  0  0  0  0  0  0  0
  -16.4331   46.9821  -19.8496 C   0  0  0  0  0  0  0  0  0  0  0  0
  -17.7703   47.4919  -20.3308 C   0  0  0  0  0  0  0  0  0  0  0  0
  -16.5165   45.9258  -18.9450 O   0  0  0  0  0  0  0  0  0  0  0  0
  -17.1238   44.7178  -19.0829 C   0  0  0  0  0  0  0  0  0  0  0  0
  -18.3085   44.3444  -18.5210 C   0  0  0  0  0  0  0  0  0  0  0  0
  -18.8479   43.0927  -18.7207 C   0  0  0  0  0  0  0  0  0  0  0  0
  -18.2084   42.1406  -19.5101 C   0  0  0  0  0  0  0  0  0  0  0  0
  -18.7930   40.8203  -19.7267 C   0  0  0  0  0  0  0  0  0  0  0  0
  -18.5026   39.9302  -20.6912 N   0  0  0  0  0  0  0  0  0  0  0  0
  -19.2749   38.8447  -20.5206 C   0  0  0  0  0  0  0  0  0  0  0  0
  -19.3210   37.6276  -21.3074 C   0  0  0  0  0  0  0  0  0  0  0  0
  -19.2315   36.3978  -20.6785 C   0  0  0  0  0  0  0  0  0  0  0  0
  -19.2750   35.2321  -21.4042 C   0  0  0  0  0  0  0  0  0  0  0  0
  -19.4099   35.3046  -22.7673 C   0  0  0  0  0  0  0  0  0  0  0  0
  -19.5053   36.5127  -23.4574 C   0  0  0  0  0  0  0  0  0  0  0  0
  -19.4567   37.6499  -22.6952 C   0  0  0  0  0  0  0  0  0  0  0  0
  -19.5619   38.8577  -23.5496 C   0  0  0  0  0  0  0  0  0  0  0  0
  -20.0359   38.3281  -24.8676 C   0  0  0  0  0  0  0  0  0  0  0  0
  -19.6511   36.8773  -24.8664 C   0  0  2  0  0  0  0  0  0  0  0  0
  -20.6409   36.0608  -25.5496 N   0  0  0  0  0  0  0  0  0  0  0  0
  -21.8034   36.8965  -25.8042 C   0  0  0  0  0  0  0  0  0  0  0  0
  -22.3145   36.6839  -27.2184 C   0  0  0  0  0  0  0  0  0  0  0  0
  -23.6425   37.0683  -27.2785 O   0  0  0  0  0  0  0  0  0  0  0  0
  -20.0329   39.0870  -19.4453 N   0  0  0  0  0  0  0  0  0  0  0  0
  -19.7244   40.2795  -18.9880 O   0  0  0  0  0  0  0  0  0  0  0  0
  -17.0049   42.5128  -20.0837 C   0  0  0  0  0  0  0  0  0  0  0  0
  -16.4817   43.7764  -19.8684 C   0  0  0  0  0  0  0  0  0  0  0  0
  -15.2105   44.1205  -20.4879 C   0  0  0  0  0  0  0  0  0  0  0  0
  -14.1836   44.3798  -20.9761 N   0  0  0  0  0  0  0  0  0  0  0  0
  1  2  1  0
  2  3  1  0
  2  4  1  0
  4  5  1  0
  5  6  2  0
  6  7  1  0
  7  8  2  0
  8  9  1  0
  9 10  2  0
 10 11  1  0
 11 12  1  0
 12 13  2  0
 13 14  1  0
 14 15  2  0
 15 16  1  0
 16 17  2  0
 17 18  1  0
 18 19  1  0
 19 20  1  0
 20 21  1  1
 21 22  1  0
 22 23  1  0
 23 24  1  0
 11 25  2  0
 25 26  1  0
  8 27  1  0
 27 28  2  0
 28 29  1  0
 29 30  3  0
 28  5  1  0
 26  9  1  0
 17 12  1  0
 20 16  1  0
M  END
$$$$
