
     RDKit          3D

 21 22  0  0  0  0  0  0  0  0999 V2000
  -28.9504   30.8833  -30.8544 C   0  0  0  0  0  0  0  0  0  0  0  0
  -28.1190   30.0988  -29.9773 N   0  0  0  0  0  0  0  0  0  0  0  0
  -28.0106   28.7545  -30.4433 C   0  0  0  0  0  0  0  0  0  0  0  0
  -27.6290   27.7566  -29.3803 C   0  0  0  0  0  0  0  0  0  0  0  0
  -26.3634   28.0717  -28.7061 C   0  0  0  0  0  0  0  0  0  0  0  0
  -25.6777   26.9067  -28.4228 C   0  0  0  0  0  0  0  0  0  0  0  0
  -24.4468   26.9178  -27.7855 C   0  0  0  0  0  0  0  0  0  0  0  0
  -23.5644   25.4541  -27.4189 Cl  0  0  0  0  0  0  0  0  0  0  0  0
  -23.8729   28.1173  -27.4152 C   0  0  0  0  0  0  0  0  0  0  0  0
  -22.6407   28.1774  -26.7743 O   0  0  0  0  0  0  0  0  0  0  0  0
  -24.5427   29.2736  -27.6908 C   0  0  0  0  0  0  0  0  0  0  0  0
  -25.7656   29.2516  -28.3246 C   0  0  0  0  0  0  0  0  0  0  0  0
  -26.3083   30.6030  -28.5214 C   0  0  1  0  0  0  0  0  0  0  0  0
  -25.3855   31.6822  -28.1172 C   0  0  0  0  0  0  0  0  0  0  0  0
  -24.4620   32.2295  -28.9802 C   0  0  0  0  0  0  0  0  0  0  0  0
  -23.6110   33.2394  -28.5775 C   0  0  0  0  0  0  0  0  0  0  0  0
  -23.6657   33.7277  -27.2924 C   0  0  0  0  0  0  0  0  0  0  0  0
  -24.5826   33.1996  -26.3997 C   0  0  0  0  0  0  0  0  0  0  0  0
  -25.4200   32.1935  -26.8251 C   0  0  0  0  0  0  0  0  0  0  0  0
  -26.7977   30.7397  -29.9437 C   0  0  0  0  0  0  0  0  0  0  0  0
  -25.4179   30.5920  -28.5259 Cl  0  0  0  0  0  0  0  0  0  0  0  0
  1  2  1  0
  2  3  1  0
  3  4  1  0
  4  5  1  0
  5  6  2  0
  6  7  1  0
  7  8  1  0
  7  9  2  0
  9 10  1  0
  9 11  1  0
 11 12  2  0
 12 13  1  0
 13 14  1  6
 14 15  2  0
 15 16  1  0
 16 17  2  0
 17 18  1  0
 18 19  2  0
 13 20  1  0
 20  2  1  0
 12  5  1  0
 19 14  1  0
M  END
$$$$
