
     RDKit          3D

 34 34  0  0  0  0  0  0  0  0999 V2000
  -19.0305   23.7210  -42.1633 C   0  0  0  0  0  0  0  0  0  0  0  0
  -17.5702   23.9001  -41.9537 C   0  0  0  0  0  0  0  0  0  0  0  0
  -17.3562   24.8233  -40.7580 C   0  0  0  0  0  0  0  0  0  0  0  0
  -16.7250   22.6946  -41.9590 C   0  0  0  0  0  0  0  0  0  0  0  0
  -16.7452   21.8060  -43.1409 C   0  0  1  0  0  0  0  0  0  0  0  0
  -16.5258   22.4620  -44.4450 C   0  0  0  0  0  0  0  0  0  0  0  0
  -16.8735   21.8811  -45.4590 O   0  0  0  0  0  0  0  0  0  0  0  0
  -15.9376   20.6161  -42.9761 N   0  0  0  0  0  0  0  0  0  0  0  0
  -16.4679   19.2971  -42.9549 C   0  0  0  0  0  0  0  0  0  0  0  0
  -17.6528   19.1081  -43.2971 O   0  0  0  0  0  0  0  0  0  0  0  0
  -15.6028   18.1322  -42.5211 C   0  0  2  0  0  0  0  0  0  0  0  0
  -15.3872   18.1493  -41.0454 C   0  0  0  0  0  0  0  0  0  0  0  0
  -14.5033   16.9956  -40.6285 C   0  0  0  0  0  0  0  0  0  0  0  0
  -14.2228   17.0633  -39.1180 C   0  0  0  0  0  0  0  0  0  0  0  0
  -15.1190   15.6676  -40.9812 C   0  0  0  0  0  0  0  0  0  0  0  0
  -14.3651   18.1397  -43.2773 N   0  0  0  0  0  0  0  0  0  0  0  0
  -14.3491   18.0598  -44.7163 C   0  0  0  0  0  0  0  0  0  0  0  0
  -15.4539   17.9450  -45.3055 O   0  0  0  0  0  0  0  0  0  0  0  0
  -13.1122   18.1071  -45.4977 C   0  0  2  0  0  0  0  0  0  0  0  0
  -13.0655   17.1099  -46.6336 C   0  0  0  0  0  0  0  0  0  0  0  0
  -12.9782   15.6920  -46.1814 C   0  0  0  0  0  0  0  0  0  0  0  0
  -14.2152   15.2321  -45.4419 C   0  0  0  0  0  0  0  0  0  0  0  0
  -12.9216   14.8335  -47.4537 C   0  0  0  0  0  0  0  0  0  0  0  0
  -11.9830   17.8725  -44.6251 N   0  0  0  0  0  0  0  0  0  0  0  0
  -11.3238   18.9986  -43.9966 C   0  0  0  0  0  0  0  0  0  0  0  0
  -11.8453   20.1368  -44.0523 O   0  0  0  0  0  0  0  0  0  0  0  0
  -10.1399   18.7546  -43.3616 O   0  0  0  0  0  0  0  0  0  0  0  0
   -9.9345   18.8847  -41.9931 C   0  0  0  0  0  0  0  0  0  0  0  0
   -8.6416   18.2577  -41.6018 C   0  0  0  0  0  0  0  0  0  0  0  0
   -7.4854   19.0273  -41.6497 C   0  0  0  0  0  0  0  0  0  0  0  0
   -6.2955   18.5001  -41.2775 C   0  0  0  0  0  0  0  0  0  0  0  0
   -6.1971   17.1877  -40.8414 C   0  0  0  0  0  0  0  0  0  0  0  0
   -7.3470   16.4283  -40.7952 C   0  0  0  0  0  0  0  0  0  0  0  0
   -8.5663   16.9694  -41.1764 C   0  0  0  0  0  0  0  0  0  0  0  0
  1  2  1  0
  2  3  1  0
  2  4  1  0
  5  4  1  1
  5  6  1  0
  6  7  2  0
  5  8  1  0
  8  9  1  0
  9 10  2  0
  9 11  1  0
 11 12  1  1
 12 13  1  0
 13 14  1  0
 13 15  1  0
 11 16  1  0
 16 17  1  0
 17 18  2  0
 17 19  1  0
 19 20  1  6
 20 21  1  0
 21 22  1  0
 21 23  1  0
 19 24  1  0
 24 25  1  0
 25 26  2  0
 25 27  1  0
 27 28  1  0
 28 29  1  0
 29 30  2  0
 30 31  1  0
 31 32  2  0
 32 33  1  0
 33 34  2  0
 34 29  1  0
M  END
$$$$
