
     RDKit          3D

 33 38  0  0  0  0  0  0  0  0999 V2000
  -22.0510    2.3194  -27.8392 C   0  0  0  0  0  0  0  0  0  0  0  0
  -22.3328    3.2737  -28.9816 C   0  0  0  0  0  0  0  0  0  0  0  0
  -21.3405    3.1475  -30.0901 C   0  0  0  0  0  0  0  0  0  0  0  0
  -21.0575    1.9282  -30.5634 O   0  0  0  0  0  0  0  0  0  0  0  0
  -20.3635    1.3110  -31.5162 C   0  0  0  0  0  0  0  0  0  0  0  0
  -20.7854    1.4497  -32.8565 C   0  0  0  0  0  0  0  0  0  0  0  0
  -20.1360    0.8541  -33.8824 C   0  0  0  0  0  0  0  0  0  0  0  0
  -19.0107    0.0719  -33.6325 C   0  0  0  0  0  0  0  0  0  0  0  0
  -18.6110   -0.0574  -32.3355 C   0  0  0  0  0  0  0  0  0  0  0  0
  -19.2530    0.5371  -31.2742 C   0  0  0  0  0  0  0  0  0  0  0  0
  -17.5068   -0.8642  -32.4044 N   0  0  0  0  0  0  0  0  0  0  0  0
  -17.2774   -1.1882  -33.6870 C   0  0  0  0  0  0  0  0  0  0  0  0
  -18.2233   -0.6006  -34.4688 N   0  0  0  0  0  0  0  0  0  0  0  0
  -18.3478   -0.6791  -35.8850 C   0  0  0  0  0  0  0  0  0  0  0  0
  -19.5387   -0.3671  -36.5300 C   0  0  0  0  0  0  0  0  0  0  0  0
  -19.6757   -0.4280  -37.8956 C   0  0  0  0  0  0  0  0  0  0  0  0
  -18.5936   -0.8143  -38.6814 C   0  0  0  0  0  0  0  0  0  0  0  0
  -18.6955   -0.8811  -40.0533 C   0  0  0  0  0  0  0  0  0  0  0  0
  -17.6177   -1.2608  -40.8258 C   0  0  0  0  0  0  0  0  0  0  0  0
  -16.4515   -1.5640  -40.1455 C   0  0  0  0  0  0  0  0  0  0  0  0
  -16.3100   -1.5092  -38.7655 C   0  0  0  0  0  0  0  0  0  0  0  0
  -15.1009   -1.8315  -38.1354 N   0  0  0  0  0  0  0  0  0  0  0  0
  -13.8766   -1.9145  -38.8988 C   0  0  0  0  0  0  0  0  0  0  0  0
  -13.2384   -3.2545  -38.4725 C   0  0  0  0  0  0  0  0  0  0  0  0
  -12.6865   -3.0035  -37.1066 C   0  0  0  0  0  0  0  0  0  0  0  0
  -12.2800   -4.2816  -36.4953 N   0  0  0  0  0  0  0  0  0  0  0  0
  -13.5994   -2.2410  -36.2271 C   0  0  0  0  0  0  0  0  0  0  0  0
  -15.0123   -2.0829  -36.7154 C   0  0  0  0  0  0  0  0  0  0  0  0
  -17.4277   -1.1190  -38.0228 C   0  0  0  0  0  0  0  0  0  0  0  0
  -17.3337   -1.0463  -36.6790 N   0  0  0  0  0  0  0  0  0  0  0  0
  -22.2920    4.6959  -28.4026 C   0  0  0  0  0  0  0  0  0  0  0  0
  -23.6982    4.6986  -28.3116 O   0  0  0  0  0  0  0  0  0  0  0  0
  -23.7359    3.6382  -29.2535 C   0  0  0  0  0  0  0  0  0  0  0  0
  1  2  1  0
  2  3  1  0
  3  4  1  0
  4  5  1  0
  5  6  2  0
  6  7  1  0
  7  8  2  0
  8  9  1  0
  9 10  2  0
  9 11  1  0
 11 12  2  0
 12 13  1  0
 13 14  1  0
 14 15  2  0
 15 16  1  0
 16 17  2  0
 17 18  1  0
 18 19  2  0
 19 20  1  0
 20 21  2  0
 21 22  1  0
 22 23  1  0
 23 24  1  0
 24 25  1  0
 25 26  1  0
 25 27  1  0
 27 28  1  0
 21 29  1  0
 29 30  2  0
  2 31  1  0
 31 32  1  0
 32 33  1  0
 33  2  1  0
 10  5  1  0
 30 14  1  0
 13  8  1  0
 29 17  1  0
 28 22  1  0
M  END
$$$$
