
     RDKit          3D

 41 45  0  0  0  0  0  0  0  0999 V2000
  -24.0012   41.4502  -22.1267 C   0  0  0  0  0  0  0  0  0  0  0  0
  -22.6385   41.5931  -22.7380 C   0  0  0  0  0  0  0  0  0  0  0  0
  -21.6153   41.5419  -21.8182 O   0  0  0  0  0  0  0  0  0  0  0  0
  -20.9319   40.3504  -21.8653 C   0  0  1  0  0  0  0  0  0  0  0  0
  -21.7927   39.2068  -22.3855 C   0  0  0  0  0  0  0  0  0  0  0  0
  -20.8791   38.2841  -22.9514 N   0  0  0  0  0  0  0  0  0  0  0  0
  -20.9415   36.9529  -22.4861 C   0  0  1  0  0  0  0  0  0  0  0  0
  -20.4903   35.9117  -23.4799 C   0  0  0  0  0  0  0  0  0  0  0  0
  -20.7612   34.5520  -22.9658 C   0  0  0  0  0  0  0  0  0  0  0  0
  -20.5626   34.3079  -21.5266 C   0  0  1  0  0  0  0  0  0  0  0  0
  -21.7112   33.6141  -21.0586 O   0  0  0  0  0  0  0  0  0  0  0  0
  -19.4421   33.3228  -21.2967 C   0  0  0  0  0  0  0  0  0  0  0  0
  -19.5343   31.9992  -21.6890 C   0  0  0  0  0  0  0  0  0  0  0  0
  -18.5323   31.0796  -21.4938 C   0  0  0  0  0  0  0  0  0  0  0  0
  -17.3688   31.4768  -20.8776 C   0  0  0  0  0  0  0  0  0  0  0  0
  -17.2500   32.7848  -20.4778 C   0  0  0  0  0  0  0  0  0  0  0  0
  -18.2679   33.6880  -20.6844 C   0  0  0  0  0  0  0  0  0  0  0  0
  -15.9942   32.9482  -19.8833 O   0  0  0  0  0  0  0  0  0  0  0  0
  -15.5315   31.6368  -19.5302 C   0  0  0  0  0  0  0  0  0  0  0  0
  -16.1796   30.8369  -20.5259 O   0  0  0  0  0  0  0  0  0  0  0  0
  -20.4010   35.4846  -20.6424 C   0  0  0  0  0  0  0  0  0  0  0  0
  -20.0541   36.7784  -21.2711 C   0  0  0  0  0  0  0  0  0  0  0  0
  -19.5784   38.8640  -23.0272 C   0  0  0  0  0  0  0  0  0  0  0  0
  -19.8697   40.3480  -22.9762 C   0  0  2  0  0  0  0  0  0  0  0  0
  -18.7490   41.1477  -22.6294 N   0  0  0  0  0  0  0  0  0  0  0  0
  -18.5415   42.3979  -23.2609 C   0  0  0  0  0  0  0  0  0  0  0  0
  -19.5496   42.9437  -23.8012 O   0  0  0  0  0  0  0  0  0  0  0  0
  -17.2191   43.0735  -23.3106 C   0  0  0  0  0  0  0  0  0  0  0  0
  -17.0337   43.8520  -22.1060 N   0  0  0  0  0  0  0  0  0  0  0  0
  -16.1909   43.3848  -21.0835 C   0  0  0  0  0  0  0  0  0  0  0  0
  -15.6657   42.2427  -21.1671 O   0  0  0  0  0  0  0  0  0  0  0  0
  -15.9044   44.2027  -19.9086 C   0  0  0  0  0  0  0  0  0  0  0  0
  -16.4369   45.4857  -19.7993 C   0  0  0  0  0  0  0  0  0  0  0  0
  -16.1772   46.2706  -18.6988 C   0  0  0  0  0  0  0  0  0  0  0  0
  -15.3842   45.8258  -17.6624 C   0  0  0  0  0  0  0  0  0  0  0  0
  -14.8451   44.5603  -17.7458 C   0  0  0  0  0  0  0  0  0  0  0  0
  -13.9916   44.0783  -16.6330 C   0  0  0  0  0  0  0  0  0  0  0  0
  -14.4478   42.8436  -16.1666 F   0  0  0  0  0  0  0  0  0  0  0  0
  -12.7119   43.9285  -17.0873 F   0  0  0  0  0  0  0  0  0  0  0  0
  -13.9992   45.0054  -15.5994 F   0  0  0  0  0  0  0  0  0  0  0  0
  -15.1208   43.7780  -18.8725 C   0  0  0  0  0  0  0  0  0  0  0  0
  1  2  1  0
  2  3  1  0
  4  3  1  6
  4  5  1  0
  5  6  1  0
  7  6  1  6
  7  8  1  0
  8  9  1  0
  9 10  1  0
 10 11  1  1
 10 12  1  0
 12 13  2  0
 13 14  1  0
 14 15  2  0
 15 16  1  0
 16 17  2  0
 16 18  1  0
 18 19  1  0
 19 20  1  0
 10 21  1  0
 21 22  1  0
  6 23  1  0
 23 24  1  0
 24 25  1  1
 25 26  1  0
 26 27  2  0
 26 28  1  0
 28 29  1  0
 29 30  1  0
 30 31  2  0
 30 32  1  0
 32 33  2  0
 33 34  1  0
 34 35  2  0
 35 36  1  0
 36 37  1  0
 37 38  1  0
 37 39  1  0
 37 40  1  0
 36 41  2  0
 24  4  1  0
 41 32  1  0
 22  7  1  0
 17 12  1  0
 20 15  1  0
M  END
$$$$
