
     RDKit          3D

 16 17  0  0  0  0  0  0  0  0999 V2000
  -28.8920   13.7440  -24.1896 C   0  0  0  0  0  0  0  0  0  0  0  0
  -28.1962   14.7672  -23.3810 C   0  0  0  0  0  0  0  0  0  0  0  0
  -27.7415   15.9043  -23.9811 N   0  0  0  0  0  0  0  0  0  0  0  0
  -27.0951   16.8425  -23.2676 C   0  0  0  0  0  0  0  0  0  0  0  0
  -26.6619   17.9035  -23.7881 O   0  0  0  0  0  0  0  0  0  0  0  0
  -26.8733   16.6848  -21.9144 C   0  0  0  0  0  0  0  0  0  0  0  0
  -26.1918   17.6543  -21.1175 C   0  0  0  0  0  0  0  0  0  0  0  0
  -25.6316   18.4429  -20.4519 N   0  0  0  0  0  0  0  0  0  0  0  0
  -27.3277   15.5409  -21.2957 C   0  0  0  0  0  0  0  0  0  0  0  0
  -28.0011   14.5681  -22.0488 C   0  0  0  0  0  0  0  0  0  0  0  0
  -28.4912   13.3728  -21.4016 C   0  0  0  0  0  0  0  0  0  0  0  0
  -27.5540   12.4155  -21.0070 C   0  0  0  0  0  0  0  0  0  0  0  0
  -27.8952   11.2452  -20.3693 C   0  0  0  0  0  0  0  0  0  0  0  0
  -29.1954   11.0053  -20.1101 N   0  0  0  0  0  0  0  0  0  0  0  0
  -30.1252   11.9123  -20.4795 C   0  0  0  0  0  0  0  0  0  0  0  0
  -29.7916   13.0986  -21.1245 C   0  0  0  0  0  0  0  0  0  0  0  0
  1  2  1  0
  2  3  1  0
  3  4  1  0
  4  5  2  0
  4  6  1  0
  6  7  1  0
  7  8  3  0
  6  9  2  0
  9 10  1  0
 10 11  1  0
 11 12  2  0
 12 13  1  0
 13 14  2  0
 14 15  1  0
 15 16  2  0
 10  2  2  0
 16 11  1  0
M  END
$$$$
