
     RDKit          3D

 29 31  0  0  0  0  0  0  0  0999 V2000
  -18.5106   39.1079  -21.8188 O   0  0  0  0  0  0  0  0  0  0  0  0
  -19.0639   39.7765  -20.8768 C   0  0  0  0  0  0  0  0  0  0  0  0
  -20.0215   39.0573  -20.0246 C   0  0  0  0  0  0  0  0  0  0  0  0
  -20.4721   37.8971  -20.3967 C   0  0  0  0  0  0  0  0  0  0  0  0
  -19.7844   36.8865  -21.1868 C   0  0  0  0  0  0  0  0  0  0  0  0
  -18.4530   36.6123  -20.8377 C   0  0  0  0  0  0  0  0  0  0  0  0
  -17.7293   35.7008  -21.5380 C   0  0  0  0  0  0  0  0  0  0  0  0
  -18.2323   34.9952  -22.6150 C   0  0  0  0  0  0  0  0  0  0  0  0
  -17.4579   34.0471  -23.3237 N   0  0  0  0  0  4  0  0  0  0  0  0
  -17.3307   34.1883  -24.5479 O   0  0  0  0  0  0  0  0  0  0  0  0
  -16.8737   33.0173  -22.6866 O   0  0  0  0  0  1  0  0  0  0  0  0
  -19.5505   35.2949  -22.9288 C   0  0  0  0  0  0  0  0  0  0  0  0
  -20.3098   36.2115  -22.2414 C   0  0  0  0  0  0  0  0  0  0  0  0
  -20.4239   39.6319  -18.7460 C   0  0  0  0  0  0  0  0  0  0  0  0
  -20.6315   41.4063  -19.0176 S   0  0  0  0  0  6  0  0  0  0  0  0
  -21.5295   41.5992  -20.2036 O   0  0  0  0  0  0  0  0  0  0  0  0
  -21.0791   42.0926  -17.7882 O   0  0  0  0  0  0  0  0  0  0  0  0
  -18.9897   41.8990  -19.5149 C   0  0  0  0  0  0  0  0  0  0  0  0
  -18.6921   41.1676  -20.7471 C   0  0  0  0  0  0  0  0  0  0  0  0
  -18.0419   41.7958  -21.7101 C   0  0  0  0  0  0  0  0  0  0  0  0
  -17.6575   43.1642  -21.7726 C   0  0  0  0  0  0  0  0  0  0  0  0
  -18.5389   44.1044  -21.2213 C   0  0  0  0  0  0  0  0  0  0  0  0
  -18.1964   45.4365  -21.2341 C   0  0  0  0  0  0  0  0  0  0  0  0
  -16.9978   45.8769  -21.7802 C   0  0  0  0  0  0  0  0  0  0  0  0
  -16.6701   47.2553  -21.7855 N   0  0  0  0  0  4  0  0  0  0  0  0
  -17.5723   48.0817  -21.5915 O   0  0  0  0  0  0  0  0  0  0  0  0
  -15.3976   47.6888  -21.9957 O   0  0  0  0  0  1  0  0  0  0  0  0
  -16.1475   44.9279  -22.3163 C   0  0  0  0  0  0  0  0  0  0  0  0
  -16.4637   43.5640  -22.3197 C   0  0  0  0  0  0  0  0  0  0  0  0
  1  2  2  0
  2  3  1  0
  3  4  2  0
  4  5  1  0
  5  6  2  0
  6  7  1  0
  7  8  2  0
  8  9  1  0
  9 10  2  0
  9 11  1  0
  8 12  1  0
 12 13  2  0
  3 14  1  0
 14 15  1  0
 15 16  2  0
 15 17  2  0
 15 18  1  0
 18 19  1  0
 19 20  2  0
 20 21  1  0
 21 22  2  0
 22 23  1  0
 23 24  2  0
 24 25  1  0
 25 26  2  0
 25 27  1  0
 24 28  1  0
 28 29  2  0
 19  2  1  0
 29 21  1  0
 13  5  1  0
M  CHG  4   9   1  11  -1  25   1  27  -1
M  END
$$$$
