
     RDKit          3D

 29 32  0  0  0  0  0  0  0  0999 V2000
  -20.1566   32.4429  -22.6259 C   0  0  0  0  0  0  0  0  0  0  0  0
  -20.3109   33.6713  -21.8659 N   0  0  0  0  0  0  0  0  0  0  0  0
  -19.7212   34.8946  -22.2153 C   0  0  0  0  0  0  0  0  0  0  0  0
  -18.8568   34.9314  -23.1104 O   0  0  0  0  0  0  0  0  0  0  0  0
  -20.1045   36.1388  -21.5435 C   0  0  1  0  0  0  0  0  0  0  0  0
  -19.0335   37.0024  -21.3418 O   0  0  0  0  0  0  0  0  0  0  0  0
  -19.6942   38.0904  -20.7239 C   0  0  1  0  0  0  0  0  0  0  0  0
  -18.8541   39.2414  -20.6483 N   0  0  0  0  0  0  0  0  0  0  0  0
  -17.7387   39.4728  -21.3491 C   0  0  0  0  0  0  0  0  0  0  0  0
  -17.2237   40.6708  -20.9982 N   0  0  0  0  0  0  0  0  0  0  0  0
  -18.0336   41.1964  -20.0605 C   0  0  0  0  0  0  0  0  0  0  0  0
  -18.0348   42.3756  -19.3305 C   0  0  0  0  0  0  0  0  0  0  0  0
  -17.0130   43.2991  -19.5364 N   0  0  0  0  0  0  0  0  0  0  0  0
  -16.1474   43.2741  -20.6737 C   0  0  0  0  0  0  0  0  0  0  0  0
  -15.2479   44.4307  -20.7573 C   0  0  0  0  0  0  0  0  0  0  0  0
  -14.0578   44.4583  -20.0804 C   0  0  0  0  0  0  0  0  0  0  0  0
  -13.1982   45.5446  -20.1769 C   0  0  0  0  0  0  0  0  0  0  0  0
  -13.5575   46.6056  -20.9673 C   0  0  0  0  0  0  0  0  0  0  0  0
  -14.7485   46.6122  -21.6626 C   0  0  0  0  0  0  0  0  0  0  0  0
  -15.3039   48.2278  -22.8702 I   0  0  0  0  0  0  0  0  0  0  0  0
  -15.5961   45.5207  -21.5567 C   0  0  0  0  0  0  0  0  0  0  0  0
  -19.0297   42.5560  -18.4661 N   0  0  0  0  0  0  0  0  0  0  0  0
  -20.0251   41.6844  -18.2518 C   0  0  0  0  0  0  0  0  0  0  0  0
  -20.0390   40.5446  -18.9460 N   0  0  0  0  0  0  0  0  0  0  0  0
  -19.0433   40.3012  -19.8499 C   0  0  0  0  0  0  0  0  0  0  0  0
  -20.9179   38.3356  -21.6105 C   0  0  2  0  0  0  0  0  0  0  0  0
  -22.0003   38.5978  -20.7757 O   0  0  0  0  0  0  0  0  0  0  0  0
  -21.0683   36.9874  -22.3067 C   0  0  2  0  0  0  0  0  0  0  0  0
  -22.3790   36.5489  -22.2473 O   0  0  0  0  0  0  0  0  0  0  0  0
  1  2  1  0
  2  3  1  0
  3  4  2  0
  5  3  1  6
  5  6  1  0
  6  7  1  0
  7  8  1  6
  8  9  1  0
  9 10  2  0
 10 11  1  0
 11 12  2  0
 12 13  1  0
 13 14  1  0
 14 15  1  0
 15 16  2  0
 16 17  1  0
 17 18  2  0
 18 19  1  0
 19 20  1  0
 19 21  2  0
 12 22  1  0
 22 23  2  0
 23 24  1  0
 24 25  2  0
  7 26  1  0
 26 27  1  1
 26 28  1  0
 28 29  1  1
 28  5  1  0
 25  8  1  0
 25 11  1  0
 21 15  1  0
M  END
$$$$
