
     RDKit          3D

 24 27  0  0  0  0  0  0  0  0999 V2000
    1.7859   22.0054  -19.6625 C   0  0  0  0  0  0  0  0  0  0  0  0
    2.2551   22.8065  -18.7250 C   0  0  0  0  0  0  0  0  0  0  0  0
    3.6830   23.1487  -18.5166 C   0  0  1  0  0  0  0  0  0  0  0  0
    4.0375   24.5264  -19.0007 C   0  0  0  0  0  0  0  0  0  0  0  0
    5.0158   25.0676  -18.0509 N   0  0  0  0  0  0  0  0  0  0  0  0
    6.0912   24.1535  -17.9363 C   0  0  0  0  0  0  0  0  0  0  0  0
    5.7382   22.8269  -17.3096 C   0  0  0  0  0  0  0  0  0  0  0  0
    4.2038   22.8614  -17.1418 C   0  0  1  0  0  0  0  0  0  0  0  0
    3.9981   24.0285  -16.1652 C   0  0  0  0  0  0  0  0  0  0  0  0
    4.2879   25.3268  -16.8397 C   0  0  1  0  0  0  0  0  0  0  0  0
    4.9954   26.3328  -15.9943 C   0  0  2  0  0  0  0  0  0  0  0  0
    4.7960   26.0520  -14.6114 O   0  0  0  0  0  0  0  0  0  0  0  0
    4.6180   27.7220  -16.1937 C   0  0  0  0  0  0  0  0  0  0  0  0
    3.3955   28.0054  -16.8019 C   0  0  0  0  0  0  0  0  0  0  0  0
    3.0760   29.3329  -16.9634 C   0  0  0  0  0  0  0  0  0  0  0  0
    3.9057   30.3111  -16.5529 N   0  0  0  0  0  0  0  0  0  0  0  0
    5.0882   30.0423  -15.9648 C   0  0  0  0  0  0  0  0  0  0  0  0
    5.9400   31.0401  -15.5455 C   0  0  0  0  0  0  0  0  0  0  0  0
    7.1489   30.7569  -14.9466 C   0  0  0  0  0  0  0  0  0  0  0  0
    7.5580   29.4581  -14.7412 C   0  0  0  0  0  0  0  0  0  0  0  0
    8.7864   29.1603  -14.1327 O   0  0  0  0  0  0  0  0  0  0  0  0
    8.8728   27.9642  -13.3815 C   0  0  0  0  0  0  0  0  0  0  0  0
    6.7001   28.4625  -15.1634 C   0  0  0  0  0  0  0  0  0  0  0  0
    5.4809   28.7306  -15.7671 C   0  0  0  0  0  0  0  0  0  0  0  0
  1  2  2  0
  3  2  1  1
  3  4  1  0
  4  5  1  0
  5  6  1  0
  6  7  1  0
  8  7  1  6
  8  9  1  0
 10  9  1  1
 10 11  1  0
 11 12  1  1
 11 13  1  0
 13 14  2  0
 14 15  1  0
 15 16  2  0
 16 17  1  0
 17 18  2  0
 18 19  1  0
 19 20  2  0
 20 21  1  0
 21 22  1  0
 20 23  1  0
 23 24  2  0
  8  3  1  0
 24 13  1  0
 10  5  1  0
 24 17  1  0
M  END
$$$$
