
     RDKit          3D

 35 39  0  0  0  0  0  0  0  0999 V2000
  -18.2936   39.3949  -19.3154 C   0  0  0  0  0  0  0  0  0  0  0  0
  -18.9250   39.5104  -20.7094 C   0  0  0  0  0  0  0  0  0  0  0  0
  -18.7150   40.6748  -21.3935 C   0  0  0  0  0  0  0  0  0  0  0  0
  -17.9877   41.8901  -21.0778 C   0  0  0  0  0  0  0  0  0  0  0  0
  -18.2214   42.8754  -22.1112 N   0  0  0  0  0  0  0  0  0  0  0  0
  -19.2278   43.8471  -21.7547 C   0  0  0  0  0  0  0  0  0  0  0  0
  -18.8727   44.6241  -20.4981 C   0  0  0  0  0  0  0  0  0  0  0  0
  -17.5840   45.2123  -20.7136 N   0  0  0  0  0  0  0  0  0  0  0  0
  -17.3672   46.5722  -20.3918 C   0  0  0  0  0  0  0  0  0  0  0  0
  -18.3645   47.2161  -19.9133 O   0  0  0  0  0  0  0  0  0  0  0  0
  -16.0668   47.2723  -20.5793 C   0  0  2  0  0  0  0  0  0  0  0  0
  -15.3126   47.3582  -19.2686 C   0  0  0  0  0  0  0  0  0  0  0  0
  -16.3443   48.5939  -20.9596 O   0  0  0  0  0  0  0  0  0  0  0  0
  -16.5039   44.3998  -21.2693 C   0  0  0  0  0  0  0  0  0  0  0  0
  -17.0102   43.5926  -22.4580 C   0  0  0  0  0  0  0  0  0  0  0  0
  -19.6316   40.3533  -22.9467 S   0  0  0  0  0  0  0  0  0  0  0  0
  -20.1818   38.7280  -22.5135 C   0  0  0  0  0  0  0  0  0  0  0  0
  -20.9555   37.8136  -23.2141 C   0  0  0  0  0  0  0  0  0  0  0  0
  -21.4216   38.1647  -24.4932 N   0  0  0  0  0  0  0  0  0  0  0  0
  -22.1781   37.2358  -25.2852 C   0  0  0  0  0  0  0  0  0  0  0  0
  -22.9646   38.0488  -26.2990 C   0  0  0  0  0  0  0  0  0  0  0  0
  -23.4136   39.2371  -25.7922 O   0  0  0  0  0  0  0  0  0  0  0  0
  -22.4790   40.1208  -25.3401 C   0  0  0  0  0  0  0  0  0  0  0  0
  -21.1532   39.4625  -25.0385 C   0  0  0  0  0  0  0  0  0  0  0  0
  -21.2309   36.6200  -22.6376 N   0  0  0  0  0  0  0  0  0  0  0  0
  -20.7166   36.4286  -21.4118 C   0  0  0  0  0  0  0  0  0  0  0  0
  -21.0054   35.1329  -20.7703 C   0  0  0  0  0  0  0  0  0  0  0  0
  -20.7854   34.9283  -19.4323 C   0  0  0  0  0  0  0  0  0  0  0  0
  -21.0681   33.7182  -18.8993 N   0  0  0  0  0  0  0  0  0  0  0  0
  -21.5567   32.7189  -19.6488 C   0  0  0  0  0  0  0  0  0  0  0  0
  -21.8579   31.4404  -19.0987 N   0  0  0  0  0  0  0  0  0  0  0  0
  -21.7821   32.8920  -20.9635 N   0  0  0  0  0  0  0  0  0  0  0  0
  -21.5079   34.0778  -21.4989 C   0  0  0  0  0  0  0  0  0  0  0  0
  -19.9841   37.2856  -20.7401 N   0  0  0  0  0  0  0  0  0  0  0  0
  -19.6596   38.5371  -21.2721 C   0  0  0  0  0  0  0  0  0  0  0  0
  1  2  1  0
  2  3  2  0
  3  4  1  0
  4  5  1  0
  5  6  1  0
  6  7  1  0
  7  8  1  0
  8  9  1  0
  9 10  2  0
  9 11  1  0
 11 12  1  1
 11 13  1  0
  8 14  1  0
 14 15  1  0
  3 16  1  0
 16 17  1  0
 17 18  2  0
 18 19  1  0
 19 20  1  0
 20 21  1  0
 21 22  1  0
 22 23  1  0
 23 24  1  0
 18 25  1  0
 25 26  2  0
 26 27  1  0
 27 28  2  0
 28 29  1  0
 29 30  2  0
 30 31  1  0
 30 32  1  0
 32 33  2  0
 26 34  1  0
 34 35  2  0
 35  2  1  0
 15  5  1  0
 35 17  1  0
 24 19  1  0
 33 27  1  0
M  END
$$$$
