
     RDKit          3D

 25 28  0  0  0  0  0  0  0  0999 V2000
  -18.3068   31.1517  -23.4215 C   0  0  0  0  0  0  0  0  0  0  0  0
  -19.2858   32.0861  -22.7382 C   0  0  0  0  0  0  0  0  0  0  0  0
  -18.7675   33.4014  -22.8245 O   0  0  0  0  0  0  0  0  0  0  0  0
  -19.3958   34.4938  -22.2433 C   0  0  0  0  0  0  0  0  0  0  0  0
  -20.4509   34.2430  -21.6191 O   0  0  0  0  0  0  0  0  0  0  0  0
  -18.8709   35.8436  -22.3474 C   0  0  0  0  0  0  0  0  0  0  0  0
  -17.5423   36.0704  -22.5782 N   0  0  0  0  0  0  0  0  0  0  0  0
  -17.3237   37.3711  -22.6154 C   0  0  0  0  0  0  0  0  0  0  0  0
  -18.4873   37.9766  -22.4136 N   0  0  0  0  0  0  0  0  0  0  0  0
  -19.4919   37.0811  -22.2402 C   0  0  0  0  0  0  0  0  0  0  0  0
  -20.9121   37.1493  -21.9886 C   0  0  2  0  0  0  0  0  0  0  0  0
  -21.8059   37.0053  -23.2090 C   0  0  0  0  0  0  0  0  0  0  0  0
  -23.1723   37.2892  -22.5538 C   0  0  0  0  0  0  0  0  0  0  0  0
  -22.8527   38.1785  -21.3583 C   0  0  0  0  0  0  0  0  0  0  0  0
  -21.4237   38.4009  -21.4841 N   0  0  0  0  0  0  0  0  0  0  0  0
  -20.8235   39.6359  -21.1708 C   0  0  0  0  0  0  0  0  0  0  0  0
  -21.3189   40.3814  -20.2996 O   0  0  0  0  0  0  0  0  0  0  0  0
  -19.6089   40.1554  -21.8064 C   0  0  0  0  0  0  0  0  0  0  0  0
  -19.5845   41.5373  -21.8105 C   0  0  0  0  0  0  0  0  0  0  0  0
  -18.5380   42.2155  -22.3888 C   0  0  0  0  0  0  0  0  0  0  0  0
  -18.5095   43.6199  -22.3946 O   0  0  0  0  0  0  0  0  0  0  0  0
  -19.0896   44.3732  -21.3502 C   0  0  0  0  0  0  0  0  0  0  0  0
  -17.5286   41.4756  -22.9566 C   0  0  0  0  0  0  0  0  0  0  0  0
  -17.5618   40.0703  -22.9473 C   0  0  0  0  0  0  0  0  0  0  0  0
  -18.6058   39.3792  -22.3690 C   0  0  0  0  0  0  0  0  0  0  0  0
  1  2  1  0
  2  3  1  0
  3  4  1  0
  4  5  2  0
  4  6  1  0
  6  7  1  0
  7  8  2  0
  8  9  1  0
  9 10  1  0
 10 11  1  0
 11 12  1  6
 12 13  1  0
 13 14  1  0
 14 15  1  0
 15 16  1  0
 16 17  2  0
 16 18  1  0
 18 19  2  0
 19 20  1  0
 20 21  1  0
 21 22  1  0
 20 23  2  0
 23 24  1  0
 24 25  2  0
 10  6  2  0
 15 11  1  0
 25 18  1  0
 25  9  1  0
M  END
$$$$
