
     RDKit          3D

 36 40  0  0  0  0  0  0  0  0999 V2000
  -29.5702    4.8838  -28.7016 C   0  0  0  0  0  0  0  0  0  0  0  0
  -30.1604    5.1200  -27.4646 O   0  0  0  0  0  0  0  0  0  0  0  0
  -29.9187    6.1738  -26.6261 C   0  0  0  0  0  0  0  0  0  0  0  0
  -30.6740    6.2125  -25.4462 C   0  0  0  0  0  0  0  0  0  0  0  0
  -30.4753    7.2474  -24.5644 C   0  0  0  0  0  0  0  0  0  0  0  0
  -29.5682    8.2425  -24.7890 C   0  0  0  0  0  0  0  0  0  0  0  0
  -29.3666    9.3408  -23.8404 C   0  0  0  0  0  0  0  0  0  0  0  0
  -30.2761    9.3924  -22.8205 N   0  0  0  0  0  0  0  0  0  0  0  0
  -30.1139   10.3937  -21.9262 C   0  0  0  0  0  0  0  0  0  0  0  0
  -31.0223   10.5575  -20.8349 N   0  0  0  0  0  0  0  0  0  0  0  0
  -30.8123   11.6346  -19.9080 C   0  0  0  0  0  0  0  0  0  0  0  0
  -32.0928   11.8141  -19.0812 C   0  0  0  0  0  0  0  0  0  0  0  0
  -32.4047   10.6055  -18.4735 O   0  0  0  0  0  0  0  0  0  0  0  0
  -32.8378    9.6891  -19.3954 C   0  0  0  0  0  0  0  0  0  0  0  0
  -32.1181    9.6631  -20.6926 C   0  0  0  0  0  0  0  0  0  0  0  0
  -29.0563   11.2917  -22.0896 C   0  0  0  0  0  0  0  0  0  0  0  0
  -28.5149   12.6933  -21.1464 S   0  0  0  0  0  0  0  0  0  0  0  0
  -27.0758   13.1184  -22.2170 C   0  0  0  0  0  0  0  0  0  0  0  0
  -26.1444   14.2292  -21.9888 C   0  0  0  0  0  0  0  0  0  0  0  0
  -26.2442   15.1803  -23.0526 N   0  0  0  0  0  0  0  0  0  0  0  0
  -25.4784   14.9844  -24.2655 C   0  0  0  0  0  0  0  0  0  0  0  0
  -27.1129   16.2934  -22.9221 C   0  0  0  0  0  0  0  0  0  0  0  0
  -27.9549   16.3690  -21.8499 N   0  0  0  0  0  0  0  0  0  0  0  0
  -28.8051   17.3841  -21.6982 C   0  0  0  0  0  0  0  0  0  0  0  0
  -28.8854   18.4161  -22.6133 C   0  0  0  0  0  0  0  0  0  0  0  0
  -29.8314   19.4749  -22.4311 C   0  0  0  0  0  0  0  0  0  0  0  0
  -30.6735   19.3818  -21.5060 O   0  0  0  0  0  0  0  0  0  0  0  0
  -29.8638   20.6150  -23.2431 N   0  0  0  0  0  0  0  0  0  0  0  0
  -30.7799   21.6213  -23.0460 O   0  0  0  0  0  0  0  0  0  0  0  0
  -28.0400   18.3455  -23.6951 C   0  0  0  0  0  0  0  0  0  0  0  0
  -27.1820   17.2846  -23.8115 N   0  0  0  0  0  0  0  0  0  0  0  0
  -27.1725   12.1465  -23.1670 C   0  0  0  0  0  0  0  0  0  0  0  0
  -28.1595   11.2404  -23.0966 C   0  0  0  0  0  0  0  0  0  0  0  0
  -28.3673   10.1930  -23.9927 N   0  0  0  0  0  0  0  0  0  0  0  0
  -28.8466    8.1755  -25.9502 C   0  0  0  0  0  0  0  0  0  0  0  0
  -29.0339    7.1526  -26.8374 N   0  0  0  0  0  0  0  0  0  0  0  0
  1  2  1  0
  2  3  1  0
  3  4  2  0
  4  5  1  0
  5  6  2  0
  6  7  1  0
  7  8  2  0
  8  9  1  0
  9 10  1  0
 10 11  1  0
 11 12  1  0
 12 13  1  0
 13 14  1  0
 14 15  1  0
  9 16  2  0
 16 17  1  0
 17 18  1  0
 18 19  1  0
 19 20  1  0
 20 21  1  0
 20 22  1  0
 22 23  2  0
 23 24  1  0
 24 25  2  0
 25 26  1  0
 26 27  2  0
 26 28  1  0
 28 29  1  0
 25 30  1  0
 30 31  2  0
 18 32  2  0
 32 33  1  0
 33 34  2  0
  6 35  1  0
 35 36  2  0
 36  3  1  0
 34  7  1  0
 15 10  1  0
 33 16  1  0
 31 22  1  0
M  END
$$$$
