
     RDKit          3D

 45 51  0  0  0  0  0  0  0  0999 V2000
  -27.7022   12.3331  -24.7318 C   0  0  0  0  0  0  0  0  0  0  0  0
  -26.3485   12.6439  -24.3970 N   0  0  0  0  0  0  0  0  0  0  0  0
  -25.5375   13.0785  -25.5031 C   0  0  0  0  0  0  0  0  0  0  0  0
  -24.6055   14.2107  -25.1212 C   0  0  0  0  0  0  0  0  0  0  0  0
  -25.3232   15.2929  -24.4965 N   0  0  0  0  0  0  0  0  0  0  0  0
  -25.1907   16.6591  -24.8389 C   0  0  0  0  0  0  0  0  0  0  0  0
  -24.7497   17.1513  -26.0349 C   0  0  0  0  0  0  0  0  0  0  0  0
  -24.6522   18.5303  -26.2665 C   0  0  0  0  0  0  0  0  0  0  0  0
  -25.0047   19.4084  -25.2749 C   0  0  0  0  0  0  0  0  0  0  0  0
  -24.9386   20.8200  -25.3714 N   0  0  0  0  0  0  0  0  0  0  0  0
  -24.6170   21.3851  -26.6428 C   0  0  0  0  0  0  0  0  0  0  0  0
  -24.3565   20.5293  -27.6985 C   0  0  0  0  0  0  0  0  0  0  0  0
  -24.0502   21.0710  -28.9154 C   0  0  0  0  0  0  0  0  0  0  0  0
  -23.8031   20.2834  -30.1037 C   0  0  0  0  0  0  0  0  0  0  0  0
  -24.7261   20.3265  -31.1550 C   0  0  0  0  0  0  0  0  0  0  0  0
  -24.5096   19.6098  -32.3243 C   0  0  0  0  0  0  0  0  0  0  0  0
  -23.3665   18.8423  -32.4531 C   0  0  0  0  0  0  0  0  0  0  0  0
  -22.4477   18.7889  -31.4264 C   0  0  0  0  0  0  0  0  0  0  0  0
  -21.2714   18.0081  -31.5125 N   0  0  0  0  0  0  0  0  0  0  0  0
  -20.2063   18.3444  -32.2518 C   0  0  0  0  0  0  0  0  0  0  0  0
  -19.0469   17.6119  -32.3446 C   0  0  0  0  0  0  0  0  0  0  0  0
  -18.9593   16.4452  -31.6317 C   0  0  0  0  0  0  0  0  0  0  0  0
  -17.8031   15.6627  -31.6875 C   0  0  0  0  0  0  0  0  0  0  0  0
  -17.7609   14.4962  -30.9506 C   0  0  0  0  0  0  0  0  0  0  0  0
  -16.5405   13.6553  -30.9872 C   0  0  0  0  0  0  0  0  0  0  0  0
  -15.3143   14.1017  -31.6980 C   0  0  0  0  0  0  0  0  0  0  0  0
  -15.3899   14.2816  -30.1799 C   0  0  0  0  0  0  0  0  0  0  0  0
  -18.8312   14.1076  -30.1774 C   0  0  0  0  0  0  0  0  0  0  0  0
  -19.9715   14.8721  -30.1177 C   0  0  0  0  0  0  0  0  0  0  0  0
  -21.0573   14.5343  -29.3694 F   0  0  0  0  0  0  0  0  0  0  0  0
  -20.0267   16.0531  -30.8566 C   0  0  0  0  0  0  0  0  0  0  0  0
  -21.1609   16.8421  -30.8120 C   0  0  0  0  0  0  0  0  0  0  0  0
  -22.1278   16.4790  -30.1041 O   0  0  0  0  0  0  0  0  0  0  0  0
  -22.6852   19.5208  -30.2509 C   0  0  0  0  0  0  0  0  0  0  0  0
  -21.6964   19.4003  -29.1837 C   0  0  0  0  0  0  0  0  0  0  0  0
  -20.5992   20.2243  -29.2597 O   0  0  0  0  0  0  0  0  0  0  0  0
  -24.0165   22.4499  -29.0296 C   0  0  0  0  0  0  0  0  0  0  0  0
  -24.2700   23.2817  -27.9983 N   0  0  0  0  0  0  0  0  0  0  0  0
  -24.2149   24.7194  -28.1893 C   0  0  0  0  0  0  0  0  0  0  0  0
  -24.5754   22.7497  -26.7841 C   0  0  0  0  0  0  0  0  0  0  0  0
  -24.8062   23.5607  -25.8437 O   0  0  0  0  0  0  0  0  0  0  0  0
  -25.4359   18.9133  -24.1054 N   0  0  0  0  0  0  0  0  0  0  0  0
  -25.5374   17.6074  -23.8613 C   0  0  0  0  0  0  0  0  0  0  0  0
  -26.2487   14.9154  -23.4360 C   0  0  0  0  0  0  0  0  0  0  0  0
  -26.1891   13.4382  -23.2188 C   0  0  0  0  0  0  0  0  0  0  0  0
  1  2  1  0
  2  3  1  0
  3  4  1  0
  4  5  1  0
  5  6  1  0
  6  7  2  0
  7  8  1  0
  8  9  2  0
  9 10  1  0
 10 11  1  0
 11 12  2  0
 12 13  1  0
 13 14  1  0
 14 15  2  0
 15 16  1  0
 16 17  2  0
 17 18  1  0
 18 19  1  0
 19 20  1  0
 20 21  2  0
 21 22  1  0
 22 23  2  0
 23 24  1  0
 24 25  1  0
 25 26  1  0
 26 27  1  0
 24 28  2  0
 28 29  1  0
 29 30  1  0
 29 31  2  0
 31 32  1  0
 32 33  2  0
 18 34  2  0
 34 35  1  0
 35 36  1  0
 13 37  2  0
 37 38  1  0
 38 39  1  0
 38 40  1  0
 40 41  2  0
  9 42  1  0
 42 43  2  0
  5 44  1  0
 44 45  1  0
 45  2  1  0
 43  6  1  0
 40 11  1  0
 34 14  1  0
 32 19  1  0
 31 22  1  0
 27 25  1  0
M  END
$$$$
