
     RDKit          3D

 19 21  0  0  0  0  0  0  0  0999 V2000
  -21.3600   23.6385  -35.7270 C   0  0  0  0  0  0  0  0  0  0  0  0
  -22.4578   24.6583  -35.5828 C   0  0  0  0  0  0  0  0  0  0  0  0
  -22.1894   25.9036  -35.0438 C   0  0  0  0  0  0  0  0  0  0  0  0
  -23.2037   26.8362  -34.9144 C   0  0  0  0  0  0  0  0  0  0  0  0
  -24.4720   26.5147  -35.3239 C   0  0  0  0  0  0  0  0  0  0  0  0
  -25.5304   27.5416  -35.1681 C   0  0  0  0  0  0  0  0  0  0  0  0
  -24.7541   25.2806  -35.8616 C   0  0  0  0  0  0  0  0  0  0  0  0
  -26.0952   24.9582  -36.2880 N   0  0  0  0  0  0  0  0  0  0  0  0
  -26.6398   24.6835  -37.8870 S   0  0  0  0  0  0  0  0  0  0  0  0
  -28.3476   24.3667  -37.5002 C   0  0  0  0  0  0  0  0  0  0  0  0
  -29.4658   24.0558  -38.2735 C   0  0  0  0  0  0  0  0  0  0  0  0
  -30.6932   23.8632  -37.6476 C   0  0  0  0  0  0  0  0  0  0  0  0
  -31.8043   23.5636  -38.3236 F   0  0  0  0  0  0  0  0  0  0  0  0
  -30.6993   23.9984  -36.2951 C   0  0  0  0  0  0  0  0  0  0  0  0
  -29.6091   24.3010  -35.5463 C   0  0  0  0  0  0  0  0  0  0  0  0
  -28.3480   24.5031  -36.1479 C   0  0  0  0  0  0  0  0  0  0  0  0
  -27.1860   24.8064  -35.5400 C   0  0  0  0  0  0  0  0  0  0  0  0
  -27.0428   24.9659  -34.2546 O   0  0  0  0  0  0  0  0  0  0  0  0
  -23.7360   24.3727  -35.9808 C   0  0  0  0  0  0  0  0  0  0  0  0
  1  2  1  0
  2  3  2  0
  3  4  1  0
  4  5  2  0
  5  6  1  0
  5  7  1  0
  7  8  1  0
  8  9  1  0
  9 10  1  0
 10 11  2  0
 11 12  1  0
 12 13  1  0
 12 14  2  0
 14 15  1  0
 15 16  2  0
 16 17  1  0
 17 18  2  0
  7 19  2  0
 19  2  1  0
 17  8  1  0
 16 10  1  0
M  END
$$$$
