
     RDKit          3D

 22 25  0  0  0  0  0  0  0  0999 V2000
    6.0667   21.5479  -19.2515 C   0  0  0  0  0  0  0  0  0  0  0  0
    4.9260   20.6125  -19.1209 C   0  0  0  0  0  0  0  0  0  0  0  0
    4.2786   19.7898  -19.9924 C   0  0  0  0  0  0  0  0  0  0  0  0
    3.2544   19.0388  -19.5831 C   0  0  0  0  0  0  0  0  0  0  0  0
    2.8946   19.1428  -18.2445 C   0  0  0  0  0  0  0  0  0  0  0  0
    4.0167   20.3099  -17.5753 S   0  0  0  0  0  0  0  0  0  0  0  0
    1.8535   18.4787  -17.4901 N   0  0  0  0  0  0  0  0  0  0  0  0
    1.0645   17.3717  -17.8775 C   0  0  0  0  0  0  0  0  0  0  0  0
    0.3695   16.8520  -16.8390 C   0  0  0  0  0  0  0  0  0  0  0  0
   -0.4657   15.7498  -17.0171 C   0  0  0  0  0  0  0  0  0  0  0  0
   -0.5414   15.2296  -18.2880 C   0  0  0  0  0  0  0  0  0  0  0  0
    0.1722   15.7685  -19.3389 C   0  0  0  0  0  0  0  0  0  0  0  0
    0.9850   16.8515  -19.1348 C   0  0  0  0  0  0  0  0  0  0  0  0
    1.6282   17.2597  -20.3306 N   0  0  0  0  0  0  0  0  0  0  0  0
    2.5423   18.1371  -20.5296 C   0  0  0  0  0  0  0  0  0  0  0  0
    2.8998   18.2235  -21.9118 N   0  0  0  0  0  0  0  0  0  0  0  0
    1.8608   18.5559  -22.8542 C   0  0  0  0  0  0  0  0  0  0  0  0
    2.4817   19.4651  -23.8997 C   0  0  0  0  0  0  0  0  0  0  0  0
    3.6879   18.9607  -24.4429 N   0  0  0  0  0  0  0  0  0  0  0  0
    3.5490   18.0968  -25.5674 C   0  0  0  0  0  0  0  0  0  0  0  0
    4.7113   18.6368  -23.5264 C   0  0  0  0  0  0  0  0  0  0  0  0
    4.2647   17.9736  -22.2621 C   0  0  0  0  0  0  0  0  0  0  0  0
  1  2  1  0
  2  3  2  0
  3  4  1  0
  4  5  2  0
  5  6  1  0
  5  7  1  0
  7  8  1  0
  8  9  2  0
  9 10  1  0
 10 11  2  0
 11 12  1  0
 12 13  2  0
 13 14  1  0
 14 15  2  0
 15 16  1  0
 16 17  1  0
 17 18  1  0
 18 19  1  0
 19 20  1  0
 19 21  1  0
 21 22  1  0
  6  2  1  0
 13  8  1  0
 22 16  1  0
 15  4  1  0
M  END
$$$$
