
     RDKit          3D

 21 23  0  0  0  0  0  0  0  0999 V2000
  -12.4977   44.2702  -21.1350 C   0  0  0  0  0  0  0  0  0  0  0  0
  -13.9769   44.0857  -21.0504 C   0  0  0  0  0  0  0  0  0  0  0  0
  -14.7568   44.7084  -20.1253 C   0  0  0  0  0  0  0  0  0  0  0  0
  -16.1156   44.5540  -20.0306 C   0  0  0  0  0  0  0  0  0  0  0  0
  -16.7289   43.6970  -20.9516 C   0  0  0  0  0  0  0  0  0  0  0  0
  -18.1389   43.4661  -20.8299 C   0  0  0  0  0  0  0  0  0  0  0  0
  -18.8525   44.5377  -20.6485 O   0  0  0  0  0  0  0  0  0  0  0  0
  -18.8182   42.2394  -20.8851 N   0  0  0  0  0  0  0  0  0  0  0  0
  -18.1567   41.0698  -20.9294 N   0  0  0  0  0  0  0  0  0  0  0  0
  -19.0067   40.0332  -20.9126 C   0  0  0  0  0  0  0  0  0  0  0  0
  -18.6726   38.6165  -20.9488 C   0  0  0  0  0  0  0  0  0  0  0  0
  -19.6246   37.6424  -20.7526 C   0  0  0  0  0  0  0  0  0  0  0  0
  -19.2729   36.2846  -20.7931 C   0  0  0  0  0  0  0  0  0  0  0  0
  -17.9642   35.9441  -21.0316 C   0  0  0  0  0  0  0  0  0  0  0  0
  -17.0532   36.9093  -21.2200 N   0  0  0  0  0  0  0  0  0  0  0  0
  -17.3801   38.2174  -21.1831 C   0  0  0  0  0  0  0  0  0  0  0  0
  -20.2235   40.5970  -20.8555 N   0  0  0  0  0  0  0  0  0  0  0  0
  -20.1195   41.9611  -20.8368 C   0  0  0  0  0  0  0  0  0  0  0  0
  -21.2350   42.8429  -20.7328 N   0  0  0  0  0  0  0  0  0  0  0  0
  -15.9442   43.0616  -21.8903 C   0  0  0  0  0  0  0  0  0  0  0  0
  -14.5584   43.2404  -21.9622 C   0  0  0  0  0  0  0  0  0  0  0  0
  1  2  1  0
  2  3  2  0
  3  4  1  0
  4  5  2  0
  5  6  1  0
  6  7  2  0
  6  8  1  0
  8  9  1  0
  9 10  2  0
 10 11  1  0
 11 12  2  0
 12 13  1  0
 13 14  2  0
 14 15  1  0
 15 16  2  0
 10 17  1  0
 17 18  2  0
 18 19  1  0
  5 20  1  0
 20 21  2  0
 21  2  1  0
 18  8  1  0
 16 11  1  0
M  END
$$$$
