
     RDKit          3D

 27 29  0  0  0  0  0  0  0  0999 V2000
  -15.1336   19.0315  -36.1737 C   0  0  0  0  0  0  0  0  0  0  0  0
  -15.5774   18.1444  -35.0488 C   0  0  0  0  0  0  0  0  0  0  0  0
  -16.7219   17.3859  -35.1544 C   0  0  0  0  0  0  0  0  0  0  0  0
  -17.1474   16.5559  -34.1190 C   0  0  0  0  0  0  0  0  0  0  0  0
  -16.4504   16.4489  -32.9412 C   0  0  0  0  0  0  0  0  0  0  0  0
  -16.7977   15.5889  -31.8258 C   0  0  0  0  0  0  0  0  0  0  0  0
  -15.9549   14.5551  -31.4088 C   0  0  0  0  0  0  0  0  0  0  0  0
  -16.2161   13.7310  -30.3488 C   0  0  0  0  0  0  0  0  0  0  0  0
  -17.3921   13.9438  -29.6531 C   0  0  0  0  0  0  0  0  0  0  0  0
  -17.6549   13.1225  -28.5946 F   0  0  0  0  0  0  0  0  0  0  0  0
  -18.2497   14.9450  -30.0252 C   0  0  0  0  0  0  0  0  0  0  0  0
  -17.9544   15.7717  -31.1157 C   0  0  0  0  0  0  0  0  0  0  0  0
  -18.9159   16.8306  -31.4720 C   0  0  0  0  0  0  0  0  0  0  0  0
  -19.8123   17.1805  -30.4814 O   0  0  0  0  0  0  0  0  0  0  0  0
  -20.6291   18.2251  -30.2543 C   0  0  0  0  0  0  0  0  0  0  0  0
  -21.9935   18.0291  -30.5403 C   0  0  0  0  0  0  0  0  0  0  0  0
  -22.9145   19.0226  -30.3483 C   0  0  0  0  0  0  0  0  0  0  0  0
  -22.5609   20.2660  -29.8668 C   0  0  0  0  0  0  0  0  0  0  0  0
  -23.5460   21.3590  -29.6506 C   0  0  0  0  0  0  0  0  0  0  0  0
  -23.8858   21.4884  -28.1714 C   0  0  0  0  0  0  0  0  0  0  0  0
  -24.8115   22.6453  -28.0252 C   0  0  0  0  0  0  0  0  0  0  0  0
  -25.1586   23.0362  -26.8654 O   0  0  0  0  0  0  0  0  0  0  0  0
  -25.3125   23.3172  -29.1323 O   0  0  0  0  0  0  0  0  0  0  0  0
  -21.2199   20.4307  -29.5957 C   0  0  0  0  0  0  0  0  0  0  0  0
  -20.2762   19.4561  -29.7775 C   0  0  0  0  0  0  0  0  0  0  0  0
  -15.2883   17.2299  -32.8538 C   0  0  0  0  0  0  0  0  0  0  0  0
  -14.8654   18.0513  -33.8746 C   0  0  0  0  0  0  0  0  0  0  0  0
  1  2  1  0
  2  3  2  0
  3  4  1  0
  4  5  2  0
  5  6  1  0
  6  7  2  0
  7  8  1  0
  8  9  2  0
  9 10  1  0
  9 11  1  0
 11 12  2  0
 12 13  1  0
 13 14  1  0
 14 15  1  0
 15 16  2  0
 16 17  1  0
 17 18  2  0
 18 19  1  0
 19 20  1  0
 20 21  1  0
 21 22  2  0
 21 23  1  0
 18 24  1  0
 24 25  2  0
  5 26  1  0
 26 27  2  0
 27  2  1  0
 12  6  1  0
 25 15  1  0
M  END
$$$$
