
     RDKit          3D

 28 31  0  0  0  0  0  0  0  0999 V2000
  -18.7469   44.0248  -26.6971 C   0  0  0  0  0  0  0  0  0  0  0  0
  -19.4592   43.0162  -26.0910 O   0  0  0  0  0  0  0  0  0  0  0  0
  -20.2257   43.1311  -24.9727 C   0  0  0  0  0  0  0  0  0  0  0  0
  -19.7948   42.5449  -23.7623 C   0  0  0  0  0  0  0  0  0  0  0  0
  -20.5148   42.6009  -22.5830 C   0  0  0  0  0  0  0  0  0  0  0  0
  -19.9669   41.9125  -21.3337 C   0  0  0  0  0  0  0  0  0  0  0  0
  -20.1931   40.4356  -21.6510 C   0  0  0  0  0  0  0  0  0  0  0  0
  -21.4443   39.9630  -21.6166 C   0  0  0  0  0  0  0  0  0  0  0  0
  -22.7195   39.4717  -21.6039 N   0  0  0  0  0  0  0  0  0  0  0  0
  -19.1654   39.6167  -21.9452 C   0  0  0  0  0  0  0  0  0  0  0  0
  -19.4962   38.2458  -22.2779 N   0  0  0  0  0  0  0  0  0  0  0  0
  -17.8817   40.0110  -21.8950 O   0  0  0  0  0  0  0  0  0  0  0  0
  -17.5619   41.3882  -21.4775 C   0  0  0  0  0  0  0  0  0  0  0  0
  -16.1817   41.6171  -21.4552 C   0  0  0  0  0  0  0  0  0  0  0  0
  -15.8370   42.9216  -21.0115 C   0  0  0  0  0  0  0  0  0  0  0  0
  -16.7999   43.8432  -20.6430 C   0  0  0  0  0  0  0  0  0  0  0  0
  -18.1592   43.5113  -20.7173 C   0  0  0  0  0  0  0  0  0  0  0  0
  -18.4938   42.1518  -21.1823 C   0  0  0  0  0  0  0  0  0  0  0  0
  -16.1309   45.0125  -20.2445 O   0  0  0  0  0  0  0  0  0  0  0  0
  -14.7650   44.6716  -20.0532 C   0  0  0  0  0  0  0  0  0  0  0  0
  -14.6012   43.5306  -20.8461 O   0  0  0  0  0  0  0  0  0  0  0  0
  -21.6962   43.2705  -22.6137 C   0  0  0  0  0  0  0  0  0  0  0  0
  -22.1784   43.8891  -23.7863 C   0  0  0  0  0  0  0  0  0  0  0  0
  -23.3718   44.5655  -23.7541 O   0  0  0  0  0  0  0  0  0  0  0  0
  -24.4488   44.0296  -22.9260 C   0  0  0  0  0  0  0  0  0  0  0  0
  -21.4250   43.7928  -24.9187 C   0  0  0  0  0  0  0  0  0  0  0  0
  -21.8554   44.3856  -26.1106 O   0  0  0  0  0  0  0  0  0  0  0  0
  -23.1975   44.8828  -26.2102 C   0  0  0  0  0  0  0  0  0  0  0  0
  1  2  1  0
  2  3  1  0
  3  4  2  0
  4  5  1  0
  5  6  1  0
  6  7  1  0
  7  8  1  0
  8  9  3  0
  7 10  2  0
 10 11  1  0
 10 12  1  0
 12 13  1  0
 13 14  2  0
 14 15  1  0
 15 16  2  0
 16 17  1  0
 17 18  2  0
 16 19  1  0
 19 20  1  0
 20 21  1  0
  5 22  2  0
 22 23  1  0
 23 24  1  0
 24 25  1  0
 23 26  2  0
 26 27  1  0
 27 28  1  0
 26  3  1  0
 18  6  1  0
 18 13  1  0
 21 15  1  0
M  END
$$$$
