
     RDKit          3D

 32 34  0  0  0  0  0  0  0  0999 V2000
  -19.8943   22.7758  -30.0831 C   0  0  0  0  0  0  0  0  0  0  0  0
  -21.0260   23.7179  -29.8262 C   0  0  0  0  0  0  0  0  0  0  0  0
  -21.3234   24.0941  -28.5632 N   0  0  0  0  0  0  0  0  0  0  0  0
  -22.3286   24.9365  -28.2834 C   0  0  0  0  0  0  0  0  0  0  0  0
  -22.6489   25.3335  -27.0027 C   0  0  0  0  0  0  0  0  0  0  0  0
  -23.6938   26.2009  -26.7807 C   0  0  0  0  0  0  0  0  0  0  0  0
  -24.4543   26.7005  -27.8383 C   0  0  0  0  0  0  0  0  0  0  0  0
  -25.5827   27.6395  -27.5739 C   0  0  0  0  0  0  0  0  0  0  0  0
  -25.3559   28.9655  -28.0731 N   0  0  0  0  0  0  0  0  0  0  0  0
  -26.0103   29.3902  -29.3144 C   0  0  0  0  0  0  0  0  0  0  0  0
  -24.5085   29.8597  -27.4369 C   0  0  0  0  0  0  0  0  0  0  0  0
  -23.9976   29.9478  -26.1812 C   0  0  0  0  0  0  0  0  0  0  0  0
  -23.2025   30.9904  -25.8863 C   0  0  0  0  0  0  0  0  0  0  0  0
  -22.9292   31.9046  -26.8034 C   0  0  0  0  0  0  0  0  0  0  0  0
  -22.1126   33.1338  -26.7400 C   0  0  0  0  0  0  0  0  0  0  0  0
  -22.2566   34.0324  -27.6032 O   0  0  0  0  0  0  0  0  0  0  0  0
  -21.1744   33.3016  -25.7143 N   0  0  0  0  0  0  0  0  0  0  0  0
  -21.0266   34.5489  -24.9386 C   0  0  1  0  0  0  0  0  0  0  0  0
  -19.6202   35.0045  -25.1288 C   0  0  0  0  0  0  0  0  0  0  0  0
  -19.0545   35.8362  -24.0275 C   0  0  0  0  0  0  0  0  0  0  0  0
  -17.5808   35.9145  -24.1336 C   0  0  0  0  0  0  0  0  0  0  0  0
  -16.9480   34.9481  -24.6086 O   0  0  0  0  0  0  0  0  0  0  0  0
  -16.9148   37.0383  -23.7139 O   0  0  0  0  0  0  0  0  0  0  0  0
  -22.0718   35.5084  -25.2520 C   0  0  0  0  0  0  0  0  0  0  0  0
  -22.7206   36.0733  -24.3485 O   0  0  0  0  0  0  0  0  0  0  0  0
  -22.3824   35.8278  -26.5680 O   0  0  0  0  0  0  0  0  0  0  0  0
  -23.7767   31.3822  -28.1994 S   0  0  0  0  0  0  0  0  0  0  0  0
  -24.1398   26.3099  -29.1100 C   0  0  0  0  0  0  0  0  0  0  0  0
  -23.0889   25.4392  -29.3182 C   0  0  0  0  0  0  0  0  0  0  0  0
  -22.7898   25.0600  -30.5959 C   0  0  0  0  0  0  0  0  0  0  0  0
  -23.4380   25.4775  -31.5836 O   0  0  0  0  0  0  0  0  0  0  0  0
  -21.7603   24.2016  -30.8449 N   0  0  0  0  0  0  0  0  0  0  0  0
  1  2  1  0
  2  3  2  0
  3  4  1  0
  4  5  2  0
  5  6  1  0
  6  7  2  0
  7  8  1  0
  8  9  1  0
  9 10  1  0
  9 11  1  0
 11 12  2  0
 12 13  1  0
 13 14  2  0
 14 15  1  0
 15 16  2  0
 15 17  1  0
 17 18  1  0
 18 19  1  6
 19 20  1  0
 20 21  1  0
 21 22  2  0
 21 23  1  0
 18 24  1  0
 24 25  2  0
 24 26  1  0
 14 27  1  0
  7 28  1  0
 28 29  2  0
 29 30  1  0
 30 31  2  0
 30 32  1  0
 32  2  1  0
 29  4  1  0
 27 11  1  0
M  END
$$$$
