
     RDKit          3D

 15 15  0  0  0  0  0  0  0  0999 V2000
  -18.7796   33.8857  -22.5441 O   0  0  0  0  0  0  0  0  0  0  0  0
  -19.7657   34.4480  -22.0521 C   0  0  0  0  0  0  0  0  0  0  0  0
  -20.2041   33.8899  -20.8237 O   0  0  0  0  0  0  0  0  0  0  0  0
  -20.5252   35.5882  -22.5567 C   0  0  0  0  0  0  0  0  0  0  0  0
  -19.7264   36.7887  -22.9648 C   0  0  0  0  0  0  0  0  0  0  0  0
  -19.0967   37.4062  -21.7281 C   0  0  0  0  0  0  0  0  0  0  0  0
  -18.5972   38.7603  -21.8727 C   0  0  0  0  0  0  0  0  0  0  0  0
  -19.3438   39.8591  -21.5446 C   0  0  0  0  0  0  0  0  0  0  0  0
  -18.8481   41.1590  -21.7261 C   0  0  0  0  0  0  0  0  0  0  0  0
  -17.5821   41.3378  -22.2443 C   0  0  0  0  0  0  0  0  0  0  0  0
  -16.8310   40.2468  -22.5728 C   0  0  0  0  0  0  0  0  0  0  0  0
  -17.3202   38.9661  -22.3943 C   0  0  0  0  0  0  0  0  0  0  0  0
  -20.5443   37.7320  -23.7418 C   0  0  0  0  0  0  0  0  0  0  0  0
  -20.0822   38.2918  -24.7938 O   0  0  0  0  0  0  0  0  0  0  0  0
  -21.8479   38.0912  -23.4240 O   0  0  0  0  0  0  0  0  0  0  0  0
  1  2  2  0
  2  3  1  0
  2  4  1  0
  4  5  1  0
  5  6  1  0
  6  7  1  0
  7  8  2  0
  8  9  1  0
  9 10  2  0
 10 11  1  0
 11 12  2  0
  5 13  1  0
 13 14  2  0
 13 15  1  0
 12  7  1  0
M  END
$$$$
