
     RDKit          3D

 30 32  0  0  0  0  0  0  0  0999 V2000
  -15.5788   18.2279  -36.4152 C   0  0  0  0  0  0  0  0  0  0  0  0
  -16.0379   17.7338  -35.1876 O   0  0  0  0  0  0  0  0  0  0  0  0
  -17.3697   17.5148  -34.9840 C   0  0  0  0  0  0  0  0  0  0  0  0
  -18.3173   18.3125  -35.6400 C   0  0  0  0  0  0  0  0  0  0  0  0
  -19.6589   18.1271  -35.4645 C   0  0  0  0  0  0  0  0  0  0  0  0
  -20.6791   18.9467  -36.1378 C   0  0  0  0  0  0  0  0  0  0  0  0
  -21.4137   18.3895  -36.9834 O   0  0  0  0  0  0  0  0  0  0  0  0
  -20.8840   20.3124  -35.8953 N   0  0  0  0  0  0  0  0  0  0  0  0
  -21.8669   20.9672  -35.1141 C   0  0  0  0  0  0  0  0  0  0  0  0
  -22.9406   21.7226  -35.8012 C   0  0  0  0  0  0  0  0  0  0  0  0
  -24.2446   21.5114  -35.2771 N   0  0  0  0  0  0  0  0  0  0  0  0
  -25.2169   22.1739  -36.1490 C   0  0  0  0  0  0  0  0  0  0  0  0
  -24.4267   21.9791  -33.9341 C   0  0  0  0  0  0  0  0  0  0  0  0
  -22.6127   23.2030  -35.9549 C   0  0  0  0  0  0  0  0  0  0  0  0
  -21.3267   23.1138  -36.7606 C   0  0  0  0  0  0  0  0  0  0  0  0
  -21.5567   21.9521  -37.6942 C   0  0  0  0  0  0  0  0  0  0  0  0
  -22.8579   21.2981  -37.2827 C   0  0  0  0  0  0  0  0  0  0  0  0
  -20.0389   17.1140  -34.6080 C   0  0  0  0  0  0  0  0  0  0  0  0
  -19.1253   16.3184  -33.9532 C   0  0  0  0  0  0  0  0  0  0  0  0
  -19.6012   15.3279  -33.1143 O   0  0  0  0  0  0  0  0  0  0  0  0
  -20.8883   14.7749  -33.2747 C   0  0  0  0  0  0  0  0  0  0  0  0
  -17.7701   16.5220  -34.1443 C   0  0  0  0  0  0  0  0  0  0  0  0
  -16.8635   15.7154  -33.4801 O   0  0  0  0  0  0  0  0  0  0  0  0
  -16.2177   16.1251  -32.2742 C   0  0  0  0  0  0  0  0  0  0  0  0
  -15.3499   15.0123  -31.8132 C   0  0  0  0  0  0  0  0  0  0  0  0
  -14.0085   14.9386  -32.1044 C   0  0  0  0  0  0  0  0  0  0  0  0
  -13.2217   13.8847  -31.6589 C   0  0  0  0  0  0  0  0  0  0  0  0
  -13.7874   12.8727  -30.9000 C   0  0  0  0  0  0  0  0  0  0  0  0
  -15.1239   12.9476  -30.6108 C   0  0  0  0  0  0  0  0  0  0  0  0
  -15.9057   13.9923  -31.0519 C   0  0  0  0  0  0  0  0  0  0  0  0
  1  2  1  0
  2  3  1  0
  3  4  2  0
  4  5  1  0
  5  6  1  0
  6  7  2  0
  6  8  1  0
  8  9  1  0
  9 10  1  0
 10 11  1  0
 11 12  1  0
 11 13  1  0
 10 14  1  0
 14 15  1  0
 15 16  1  0
 16 17  1  0
  5 18  2  0
 18 19  1  0
 19 20  1  0
 20 21  1  0
 19 22  2  0
 22 23  1  0
 23 24  1  0
 24 25  1  0
 25 26  2  0
 26 27  1  0
 27 28  2  0
 28 29  1  0
 29 30  2  0
 22  3  1  0
 30 25  1  0
 17 10  1  0
M  END
$$$$
