
     RDKit          3D

 36 40  0  0  0  0  0  0  0  0999 V2000
  -18.7673   36.7346  -20.2417 C   0  0  0  0  0  0  0  0  0  0  0  0
  -19.4560   37.7632  -21.0856 C   0  0  0  0  0  0  0  0  0  0  0  0
  -20.7470   37.4559  -21.4973 C   0  0  0  0  0  0  0  0  0  0  0  0
  -21.3979   38.3934  -22.2767 C   0  0  0  0  0  0  0  0  0  0  0  0
  -20.8102   39.5845  -22.6396 C   0  0  0  0  0  0  0  0  0  0  0  0
  -21.5464   40.4894  -23.4403 N   0  0  0  0  0  0  0  0  0  0  0  0
  -20.9671   41.2884  -24.4570 C   0  0  0  0  0  0  0  0  0  0  0  0
  -19.7172   41.3054  -24.5208 O   0  0  0  0  0  0  0  0  0  0  0  0
  -21.7324   42.0709  -25.4074 C   0  0  0  0  0  0  0  0  0  0  0  0
  -21.2472   43.2962  -25.8018 C   0  0  0  0  0  0  0  0  0  0  0  0
  -21.9157   44.1058  -26.7044 C   0  0  0  0  0  0  0  0  0  0  0  0
  -23.1174   43.7006  -27.2498 C   0  0  0  0  0  0  0  0  0  0  0  0
  -23.8058   44.5753  -28.2045 C   0  0  0  0  0  0  0  0  0  0  0  0
  -23.3271   44.4538  -29.5667 N   0  0  0  0  0  0  0  0  0  0  0  0
  -24.3950   43.8552  -30.3385 C   0  0  0  0  0  0  0  0  0  0  0  0
  -24.5191   44.4430  -31.7174 C   0  0  0  0  0  0  0  0  0  0  0  0
  -24.6550   45.8826  -31.7120 N   0  0  0  0  0  0  0  0  0  0  0  0
  -23.9814   46.3605  -32.9249 C   0  0  0  0  0  0  0  0  0  0  0  0
  -24.0311   46.5006  -30.5600 C   0  0  0  0  0  0  0  0  0  0  0  0
  -22.8423   45.6745  -30.1293 C   0  0  0  0  0  0  0  0  0  0  0  0
  -23.5957   42.4718  -26.8489 C   0  0  0  0  0  0  0  0  0  0  0  0
  -22.9259   41.6602  -25.9442 C   0  0  0  0  0  0  0  0  0  0  0  0
  -19.5363   39.8528  -22.2150 C   0  0  0  0  0  0  0  0  0  0  0  0
  -18.8241   38.9423  -21.4225 C   0  0  0  0  0  0  0  0  0  0  0  0
  -17.5163   39.2082  -20.9813 N   0  0  0  0  0  0  0  0  0  0  0  0
  -17.2570   40.3846  -20.1810 C   0  0  0  0  0  0  0  0  0  0  0  0
  -16.3814   41.0980  -19.8478 N   0  0  0  0  0  0  0  0  0  0  0  0
  -16.4017   42.1457  -19.0817 C   0  0  0  0  0  0  0  0  0  0  0  0
  -15.2085   42.9858  -18.7244 C   0  0  0  0  0  0  0  0  0  0  0  0
  -13.9413   42.6407  -19.1439 C   0  0  0  0  0  0  0  0  0  0  0  0
  -12.8236   43.3738  -18.8442 C   0  0  0  0  0  0  0  0  0  0  0  0
  -13.0019   44.5107  -18.0826 C   0  0  0  0  0  0  0  0  0  0  0  0
  -14.2436   44.8572  -17.6661 N   0  0  0  0  0  0  0  0  0  0  0  0
  -15.3244   44.1181  -17.9755 C   0  0  0  0  0  0  0  0  0  0  0  0
  -17.6276   42.4772  -18.5807 C   0  0  0  0  0  0  0  0  0  0  0  0
  -18.7045   41.1803  -19.2955 S   0  0  0  0  0  0  0  0  0  0  0  0
  1  2  1  0
  2  3  2  0
  3  4  1  0
  4  5  2  0
  5  6  1  0
  6  7  1  0
  7  8  2  0
  7  9  1  0
  9 10  2  0
 10 11  1  0
 11 12  2  0
 12 13  1  0
 13 14  1  0
 14 15  1  0
 15 16  1  0
 16 17  1  0
 17 18  1  0
 17 19  1  0
 19 20  1  0
 12 21  1  0
 21 22  2  0
  5 23  1  0
 23 24  2  0
 24 25  1  0
 25 26  1  0
 26 27  2  0
 27 28  1  0
 28 29  1  0
 29 30  2  0
 30 31  1  0
 31 32  2  0
 32 33  1  0
 33 34  2  0
 28 35  2  0
 35 36  1  0
 24  2  1  0
 36 26  1  0
 22  9  1  0
 34 29  1  0
 20 14  1  0
M  END
$$$$
