
     RDKit          3D

 24 27  0  0  0  0  0  0  0  0999 V2000
  -20.0243   39.5390  -20.2852 C   0  0  0  0  0  0  0  0  0  0  0  0
  -19.4248   39.7702  -21.6339 C   0  0  2  0  0  0  0  0  0  0  0  0
  -17.9404   39.8400  -21.6380 C   0  0  0  0  0  0  0  0  0  0  0  0
  -17.5614   40.9661  -20.6642 C   0  0  0  0  0  0  0  0  0  0  0  0
  -18.0716   42.2551  -21.2123 C   0  0  1  0  0  0  0  0  0  0  0  0
  -19.5514   42.2714  -21.4562 C   0  0  1  0  0  0  0  0  0  0  0  0
  -19.8956   43.5098  -22.2441 C   0  0  0  0  0  0  0  0  0  0  0  0
  -18.8296   44.5452  -22.3091 C   0  0  0  0  0  0  0  0  0  0  0  0
  -17.9599   44.6377  -21.1251 C   0  0  0  0  0  0  0  0  0  0  0  0
  -17.3822   45.7709  -20.8000 C   0  0  0  0  0  0  0  0  0  0  0  0
  -16.5310   45.7740  -19.6044 C   0  0  0  0  0  0  0  0  0  0  0  0
  -16.4223   46.8496  -18.9517 O   0  0  0  0  0  0  0  0  0  0  0  0
  -15.8252   44.5641  -19.1771 C   0  0  0  0  0  0  0  0  0  0  0  0
  -16.3473   43.3121  -19.7980 C   0  0  0  0  0  0  0  0  0  0  0  0
  -17.7471   43.4179  -20.3062 C   0  0  2  0  0  0  0  0  0  0  0  0
  -18.6921   43.4784  -19.1251 C   0  0  0  0  0  0  0  0  0  0  0  0
  -19.9368   41.0783  -22.2590 C   0  0  2  0  0  0  0  0  0  0  0  0
  -21.3936   40.7783  -22.3402 C   0  0  0  0  0  0  0  0  0  0  0  0
  -21.4524   39.2871  -22.6971 C   0  0  0  0  0  0  0  0  0  0  0  0
  -20.0061   38.7885  -22.6216 C   0  0  2  0  0  0  0  0  0  0  0  0
  -19.9106   37.3963  -22.1849 C   0  0  0  0  0  0  0  0  0  0  0  0
  -20.5308   37.0277  -21.2050 O   0  0  0  0  0  0  0  0  0  0  0  0
  -19.0766   36.4307  -22.9097 C   0  0  0  0  0  0  0  0  0  0  0  0
  -18.1044   35.8389  -22.1052 O   0  0  0  0  0  0  0  0  0  0  0  0
  2  1  1  1
  2  3  1  0
  3  4  1  0
  5  4  1  1
  5  6  1  0
  6  7  1  6
  7  8  1  0
  8  9  1  0
  9 10  2  0
 10 11  1  0
 11 12  2  0
 11 13  1  0
 13 14  1  0
 14 15  1  0
 15 16  1  1
  6 17  1  0
 17 18  1  1
 18 19  1  0
 19 20  1  0
 20 21  1  1
 21 22  2  0
 21 23  1  0
 23 24  1  0
 17  2  1  0
 20  2  1  0
 15  5  1  0
 15  9  1  0
M  END
$$$$
