
     RDKit          3D

 35 40  0  0  0  0  0  0  0  0999 V2000
  -22.6614   14.9788  -19.9993 C   0  0  0  0  0  0  0  0  0  0  0  0
  -23.2935   15.7776  -21.0189 C   0  0  0  0  0  0  0  0  0  0  0  0
  -22.8107   16.9506  -21.5396 N   0  0  0  0  0  0  0  0  0  0  0  0
  -23.4653   17.6866  -22.4392 C   0  0  0  0  0  0  0  0  0  0  0  0
  -22.8993   18.8962  -22.9354 N   0  0  0  0  0  0  0  0  0  0  0  0
  -23.2598   19.5218  -24.1410 C   0  0  0  0  0  0  0  0  0  0  0  0
  -24.1699   19.1214  -25.0961 C   0  0  0  0  0  0  0  0  0  0  0  0
  -24.2024   20.0334  -26.1105 N   0  0  0  0  0  0  0  0  0  0  0  0
  -23.3449   20.9957  -25.8295 N   0  0  0  0  0  0  0  0  0  0  0  0
  -23.0351   22.1844  -26.6187 C   0  0  0  0  0  0  0  0  0  0  0  0
  -24.3278   22.8460  -27.0610 C   0  0  0  0  0  0  0  0  0  0  0  0
  -25.0049   22.0497  -28.1560 C   0  0  0  0  0  0  0  0  0  0  0  0
  -24.1136   21.5837  -29.1751 N   0  0  0  0  0  0  0  0  0  0  0  0
  -23.0211   20.8094  -28.6153 C   0  0  0  0  0  0  0  0  0  0  0  0
  -22.1951   21.7783  -27.7938 C   0  0  0  0  0  0  0  0  0  0  0  0
  -22.7609   20.7206  -24.6536 C   0  0  0  0  0  0  0  0  0  0  0  0
  -24.6679   17.3106  -22.8982 N   0  0  0  0  0  0  0  0  0  0  0  0
  -25.2041   16.1785  -22.4387 C   0  0  0  0  0  0  0  0  0  0  0  0
  -24.5223   15.3967  -21.4955 C   0  0  0  0  0  0  0  0  0  0  0  0
  -24.8864   14.1419  -20.9296 N   0  0  0  0  0  0  0  0  0  0  0  0
  -23.8054   13.2700  -20.6918 C   0  0  0  0  0  0  0  0  0  0  0  0
  -26.2652   13.7631  -20.6686 C   0  0  0  0  0  0  0  0  0  0  0  0
  -26.3769   12.9274  -19.7522 O   0  0  0  0  0  0  0  0  0  0  0  0
  -27.4696   14.2546  -21.3577 C   0  0  0  0  0  0  0  0  0  0  0  0
  -28.6038   13.6449  -20.8766 C   0  0  0  0  0  0  0  0  0  0  0  0
  -29.8561   13.9680  -21.4159 C   0  0  0  0  0  0  0  0  0  0  0  0
  -31.0152   13.3810  -20.9629 C   0  0  0  0  0  0  0  0  0  0  0  0
  -32.2614   13.6804  -21.4758 C   0  0  0  0  0  0  0  0  0  0  0  0
  -32.3266   14.6139  -22.4891 C   0  0  0  0  0  0  0  0  0  0  0  0
  -31.2096   15.2263  -22.9758 C   0  0  0  0  0  0  0  0  0  0  0  0
  -29.9801   14.8982  -22.4344 C   0  0  0  0  0  0  0  0  0  0  0  0
  -28.8158   15.4956  -22.8974 C   0  0  0  0  0  0  0  0  0  0  0  0
  -27.5803   15.1820  -22.3704 C   0  0  0  0  0  0  0  0  0  0  0  0
  -26.5063   15.9076  -22.9663 N   0  0  0  0  0  0  0  0  0  0  0  0
  -26.7807   16.4452  -24.2573 C   0  0  0  0  0  0  0  0  0  0  0  0
  1  2  1  0
  2  3  2  0
  3  4  1  0
  4  5  1  0
  5  6  1  0
  6  7  1  0
  7  8  2  0
  8  9  1  0
  9 10  1  0
 10 11  1  0
 11 12  1  0
 12 13  1  0
 13 14  1  0
 14 15  1  0
  9 16  1  0
  4 17  2  0
 17 18  1  0
 18 19  2  0
 19 20  1  0
 20 21  1  0
 20 22  1  0
 22 23  2  0
 22 24  1  0
 24 25  2  0
 25 26  1  0
 26 27  2  0
 27 28  1  0
 28 29  2  0
 29 30  1  0
 30 31  2  0
 31 32  1  0
 32 33  2  0
 33 34  1  0
 34 35  1  0
 19  2  1  0
 33 24  1  0
 16  6  2  0
 34 18  1  0
 15 10  1  0
 31 26  1  0
M  END
$$$$
