
     RDKit          3D

 27 29  0  0  0  0  0  0  0  0999 V2000
  -14.7737   45.9593  -19.3724 C   0  0  0  0  0  0  0  0  0  0  0  0
  -15.7456   44.9618  -19.8741 C   0  0  0  0  0  0  0  0  0  0  0  0
  -16.2137   43.9072  -19.1185 C   0  0  0  0  0  0  0  0  0  0  0  0
  -17.1201   42.9958  -19.6198 C   0  0  0  0  0  0  0  0  0  0  0  0
  -17.5138   42.0105  -18.7940 N   0  0  0  0  0  0  0  0  0  0  0  0
  -18.3994   41.1182  -19.2614 C   0  0  0  0  0  0  0  0  0  0  0  0
  -18.8875   40.0613  -18.5258 C   0  0  0  0  0  0  0  0  0  0  0  0
  -18.4850   39.9129  -17.3395 O   0  0  0  0  0  0  0  0  0  0  0  0
  -19.7763   39.1962  -19.0484 N   0  0  0  0  0  0  0  0  0  0  0  0
  -20.1854   39.3807  -20.3131 C   0  0  0  0  0  0  0  0  0  0  0  0
  -21.0270   38.5294  -20.7515 O   0  0  0  0  0  0  0  0  0  0  0  0
  -19.7728   40.3749  -21.1123 N   0  0  0  0  0  0  0  0  0  0  0  0
  -18.8849   41.2614  -20.6293 C   0  0  0  0  0  0  0  0  0  0  0  0
  -18.4784   42.2550  -21.4414 N   0  0  0  0  0  0  0  0  0  0  0  0
  -18.9729   42.3976  -22.8184 C   0  0  0  0  0  0  0  0  0  0  0  0
  -20.1626   43.2879  -22.8748 C   0  0  0  0  0  0  0  0  0  0  0  0
  -21.3766   42.6164  -23.1091 O   0  0  0  0  0  0  0  0  0  0  0  0
  -20.0703   44.3975  -23.9174 C   0  0  0  0  0  0  0  0  0  0  0  0
  -20.1649   43.6962  -25.1805 O   0  0  0  0  0  0  0  0  0  0  0  0
  -21.1714   45.3960  -23.8593 C   0  0  0  0  0  0  0  0  0  0  0  0
  -21.5089   45.6990  -22.5556 O   0  0  0  0  0  0  0  0  0  0  0  0
  -21.0315   46.5135  -24.8058 C   0  0  0  0  0  0  0  0  0  0  0  0
  -19.9255   47.3470  -24.4512 O   0  0  0  0  0  0  0  0  0  0  0  0
  -17.5905   43.1268  -20.9302 C   0  0  0  0  0  0  0  0  0  0  0  0
  -17.1127   44.1845  -21.6674 C   0  0  0  0  0  0  0  0  0  0  0  0
  -16.2033   45.1073  -21.1791 C   0  0  0  0  0  0  0  0  0  0  0  0
  -15.7652   46.1956  -22.0619 C   0  0  0  0  0  0  0  0  0  0  0  0
  1  2  1  0
  2  3  2  0
  3  4  1  0
  4  5  1  0
  5  6  2  0
  6  7  1  0
  7  8  2  0
  7  9  1  0
  9 10  1  0
 10 11  2  0
 10 12  1  0
 12 13  2  0
 13 14  1  0
 14 15  1  0
 15 16  1  0
 16 17  1  0
 16 18  1  0
 18 19  1  0
 18 20  1  0
 20 21  1  0
 20 22  1  0
 22 23  1  0
 14 24  1  0
 24 25  1  0
 25 26  2  0
 26 27  1  0
 26  2  1  0
 24  4  2  0
 13  6  1  0
M  END
$$$$
