
     RDKit          3D

 20 20  0  0  0  0  0  0  0  0999 V2000
  -17.7362   20.6406  -43.9267 C   0  0  0  0  0  0  0  0  0  0  0  0
  -17.4535   19.3817  -43.2785 N   0  0  0  0  0  0  0  0  0  0  0  0
  -18.7108   18.6758  -43.0639 C   0  0  0  0  0  0  0  0  0  0  0  0
  -16.7810   19.6248  -42.0268 C   0  0  0  0  0  0  0  0  0  0  0  0
  -16.4644   18.3374  -41.3118 C   0  0  0  0  0  0  0  0  0  0  0  0
  -15.8165   18.5970  -40.1082 O   0  0  0  0  0  0  0  0  0  0  0  0
  -15.5040   17.4415  -39.4140 C   0  0  0  0  0  0  0  0  0  0  0  0
  -16.2031   17.4089  -38.0943 C   0  0  0  0  0  0  0  0  0  0  0  0
  -16.2544   18.5053  -37.2582 C   0  0  0  0  0  0  0  0  0  0  0  0
  -16.9131   18.4524  -36.0298 C   0  0  0  0  0  0  0  0  0  0  0  0
  -17.5357   17.2777  -35.6251 C   0  0  0  0  0  0  0  0  0  0  0  0
  -17.4844   16.1878  -36.4567 C   0  0  0  0  0  0  0  0  0  0  0  0
  -16.8344   16.2636  -37.6533 C   0  0  0  0  0  0  0  0  0  0  0  0
  -14.0380   17.2428  -39.2489 C   0  0  0  0  0  0  0  0  0  0  0  0
  -13.4659   16.8629  -38.0614 C   0  0  0  0  0  0  0  0  0  0  0  0
  -12.0960   16.6941  -37.9686 C   0  0  0  0  0  0  0  0  0  0  0  0
  -11.2679   16.8996  -39.0539 C   0  0  0  0  0  0  0  0  0  0  0  0
  -11.8321   17.2792  -40.2428 C   0  0  0  0  0  0  0  0  0  0  0  0
  -13.2178   17.4503  -40.3384 C   0  0  0  0  0  0  0  0  0  0  0  0
  -16.2120   18.3104  -40.4172 Cl  0  0  0  0  0  0  0  0  0  0  0  0
  1  2  1  0
  2  3  1  0
  2  4  1  0
  4  5  1  0
  5  6  1  0
  6  7  1  0
  7  8  1  0
  8  9  2  0
  9 10  1  0
 10 11  2  0
 11 12  1  0
 12 13  2  0
  7 14  1  0
 14 15  2  0
 15 16  1  0
 16 17  2  0
 17 18  1  0
 18 19  2  0
 13  8  1  0
 19 14  1  0
M  END
$$$$
