
     RDKit          3D

 25 27  0  0  0  0  0  0  0  0999 V2000
  -26.3216   19.8056  -32.7842 C   0  0  0  0  0  0  0  0  0  0  0  0
  -24.9279   20.0363  -32.7574 O   0  0  0  0  0  0  0  0  0  0  0  0
  -24.1841   19.8924  -31.6086 N   0  0  0  0  0  0  0  0  0  0  0  0
  -23.2410   19.0078  -31.5708 C   0  0  0  0  0  0  0  0  0  0  0  0
  -22.3386   19.0020  -30.4766 N   0  0  0  0  0  0  0  0  0  0  0  0
  -21.2187   18.1309  -30.5373 C   0  0  0  0  0  0  0  0  0  0  0  0
  -20.6831   17.3824  -29.5576 N   0  0  0  0  0  0  0  0  0  0  0  0
  -19.6197   16.7076  -30.0786 C   0  0  0  0  0  0  0  0  0  0  0  0
  -18.7389   15.8364  -29.5607 N   0  0  0  0  0  0  0  0  0  0  0  0
  -17.7728   15.3241  -30.3400 C   0  0  0  0  0  0  0  0  0  0  0  0
  -17.6810   15.6889  -31.6708 C   0  0  0  0  0  0  0  0  0  0  0  0
  -18.5857   16.5812  -32.1947 C   0  0  0  0  0  0  0  0  0  0  0  0
  -18.4795   16.9703  -33.6340 C   0  0  0  0  0  0  0  0  0  0  0  0
  -19.7325   16.4906  -34.3861 C   0  0  0  0  0  0  0  0  0  0  0  0
  -17.3988   16.3903  -34.2665 O   0  0  0  0  0  0  0  0  0  0  0  0
  -16.3108   17.0907  -34.7226 C   0  0  0  0  0  0  0  0  0  0  0  0
  -15.3374   17.6292  -33.9102 C   0  0  0  0  0  0  0  0  0  0  0  0
  -14.2421   18.3383  -34.4244 C   0  0  0  0  0  0  0  0  0  0  0  0
  -14.0911   18.5277  -35.7648 C   0  0  0  0  0  0  0  0  0  0  0  0
  -12.7185   19.4132  -36.3668 Cl  0  0  0  0  0  0  0  0  0  0  0  0
  -15.0658   17.9894  -36.5899 C   0  0  0  0  0  0  0  0  0  0  0  0
  -16.1336   17.2990  -36.1016 C   0  0  0  0  0  0  0  0  0  0  0  0
  -17.1661   16.7302  -36.9962 C   0  0  0  0  0  0  0  0  0  0  0  0
  -19.5351   17.0705  -31.3858 N   0  0  0  0  0  0  0  0  0  0  0  0
  -20.5021   17.9298  -31.6590 N   0  0  0  0  0  0  0  0  0  0  0  0
  1  2  1  0
  2  3  1  0
  3  4  2  0
  4  5  1  0
  5  6  1  0
  6  7  1  0
  7  8  2  0
  8  9  1  0
  9 10  2  0
 10 11  1  0
 11 12  2  0
 12 13  1  0
 13 14  1  0
 13 15  1  0
 15 16  1  0
 16 17  2  0
 17 18  1  0
 18 19  2  0
 19 20  1  0
 19 21  1  0
 21 22  2  0
 22 23  1  0
 12 24  1  0
 24 25  1  0
 25  6  2  0
 24  8  1  0
 22 16  1  0
M  END
$$$$
