
     RDKit          3D

 19 18  0  0  0  0  0  0  0  0999 V2000
  -18.8315   35.0150  -23.4571 Cl  0  0  0  0  0  0  0  0  0  0  0  0
  -17.6716   31.6469  -24.2984 N   0  0  0  0  0  0  0  0  0  0  0  0
  -19.0727   31.9311  -24.3369 C   0  0  0  0  0  0  0  0  0  0  0  0
  -19.7709   31.3124  -25.5187 C   0  0  0  0  0  0  0  0  0  0  0  0
  -21.1274   31.6310  -25.4892 O   0  0  0  0  0  0  0  0  0  0  0  0
  -19.3354   33.3941  -24.2191 C   0  0  0  0  0  0  0  0  0  0  0  0
  -20.5254   33.8096  -24.2403 O   0  0  0  0  0  0  0  0  0  0  0  0
  -18.2972   34.3462  -24.0831 N   0  0  0  0  0  0  0  0  0  0  0  0
  -18.5046   35.7259  -23.9697 N   0  0  0  0  0  0  0  0  0  0  0  0
  -18.6377   36.0364  -22.5489 C   0  0  0  0  0  0  0  0  0  0  0  0
  -18.8585   37.4608  -22.2943 C   0  0  0  0  0  0  0  0  0  0  0  0
  -20.0960   37.9269  -21.9670 C   0  0  0  0  0  0  0  0  0  0  0  0
  -20.2755   39.2723  -21.7333 C   0  0  0  0  0  0  0  0  0  0  0  0
  -19.1814   40.1183  -21.8395 C   0  0  0  0  0  0  0  0  0  0  0  0
  -19.3378   41.4713  -21.6098 O   0  0  0  0  0  0  0  0  0  0  0  0
  -17.9141   39.6500  -22.1733 C   0  0  0  0  0  0  0  0  0  0  0  0
  -16.8470   40.5318  -22.2686 O   0  0  0  0  0  0  0  0  0  0  0  0
  -17.7537   38.3068  -22.4026 C   0  0  0  0  0  0  0  0  0  0  0  0
  -16.5035   37.7932  -22.7396 O   0  0  0  0  0  0  0  0  0  0  0  0
  2  3  1  0
  3  4  1  0
  4  5  1  0
  3  6  1  0
  6  7  2  0
  6  8  1  0
  8  9  1  0
  9 10  1  0
 10 11  1  0
 11 12  2  0
 12 13  1  0
 13 14  2  0
 14 15  1  0
 14 16  1  0
 16 17  1  0
 16 18  2  0
 18 19  1  0
 18 11  1  0
M  END
$$$$
