
     RDKit          3D

 32 35  0  0  0  0  0  0  0  0999 V2000
  -12.2681   47.5966  -16.9279 C   0  0  0  0  0  0  0  0  0  0  0  0
  -12.4406   46.2044  -16.7970 O   0  0  0  0  0  0  0  0  0  0  0  0
  -13.3717   45.5442  -17.5755 C   0  0  0  0  0  0  0  0  0  0  0  0
  -14.2087   46.2177  -18.4599 C   0  0  0  0  0  0  0  0  0  0  0  0
  -15.1281   45.5307  -19.2235 C   0  0  0  0  0  0  0  0  0  0  0  0
  -15.2324   44.1523  -19.1205 C   0  0  0  0  0  0  0  0  0  0  0  0
  -16.1856   43.3907  -19.9049 C   0  0  0  0  0  0  0  0  0  0  0  0
  -16.2624   43.4381  -21.2807 C   0  0  0  0  0  0  0  0  0  0  0  0
  -17.1415   42.7324  -21.9641 O   0  0  0  0  0  0  0  0  0  0  0  0
  -18.0037   41.9353  -21.3705 C   0  0  0  0  0  0  0  0  0  0  0  0
  -18.9155   41.2087  -22.1436 C   0  0  0  0  0  0  0  0  0  0  0  0
  -19.8330   40.3648  -21.5638 C   0  0  0  0  0  0  0  0  0  0  0  0
  -20.7651   39.6110  -22.2214 O   0  0  0  0  0  0  0  0  0  0  0  0
  -21.0061   38.2316  -22.0840 C   0  0  2  0  0  0  0  0  0  0  0  0
  -20.0645   37.4536  -22.7134 O   0  0  0  0  0  0  0  0  0  0  0  0
  -20.4409   36.7069  -23.7748 C   0  0  2  0  0  0  0  0  0  0  0  0
  -20.4388   37.5010  -25.0745 C   0  0  0  0  0  0  0  0  0  0  0  0
  -20.1665   36.6728  -26.1615 O   0  0  0  0  0  0  0  0  0  0  0  0
  -21.7059   35.9192  -23.6037 C   0  0  1  0  0  0  0  0  0  0  0  0
  -21.4977   34.5454  -23.5341 O   0  0  0  0  0  0  0  0  0  0  0  0
  -22.5114   36.3714  -22.4068 C   0  0  2  0  0  0  0  0  0  0  0  0
  -23.7947   35.8932  -22.4090 O   0  0  0  0  0  0  0  0  0  0  0  0
  -22.4427   37.8843  -22.4242 C   0  0  1  0  0  0  0  0  0  0  0  0
  -23.2219   38.4182  -21.3785 O   0  0  0  0  0  0  0  0  0  0  0  0
  -19.8025   40.2766  -20.1806 C   0  0  0  0  0  0  0  0  0  0  0  0
  -18.9028   40.9935  -19.4161 C   0  0  0  0  0  0  0  0  0  0  0  0
  -17.9996   41.8259  -20.0070 C   0  0  0  0  0  0  0  0  0  0  0  0
  -17.0905   42.5530  -19.2681 C   0  0  0  0  0  0  0  0  0  0  0  0
  -17.0939   42.4469  -18.0246 O   0  0  0  0  0  0  0  0  0  0  0  0
  -14.3850   43.5102  -18.2309 C   0  0  0  0  0  0  0  0  0  0  0  0
  -13.4664   44.1687  -17.4639 C   0  0  0  0  0  0  0  0  0  0  0  0
  -12.6338   43.5030  -16.5847 O   0  0  0  0  0  0  0  0  0  0  0  0
  1  2  1  0
  2  3  1  0
  3  4  2  0
  4  5  1  0
  5  6  2  0
  6  7  1  0
  7  8  2  0
  8  9  1  0
  9 10  1  0
 10 11  2  0
 11 12  1  0
 12 13  1  0
 14 13  1  6
 14 15  1  0
 15 16  1  0
 16 17  1  6
 17 18  1  0
 16 19  1  0
 19 20  1  1
 19 21  1  0
 21 22  1  6
 21 23  1  0
 23 24  1  1
 12 25  2  0
 25 26  1  0
 26 27  2  0
 27 28  1  0
 28 29  2  0
  6 30  1  0
 30 31  2  0
 31 32  1  0
 31  3  1  0
 28  7  1  0
 27 10  1  0
 23 14  1  0
M  END
$$$$
