
     RDKit          3D

 27 29  0  0  0  0  0  0  0  0999 V2000
  -20.4881   39.7385  -19.6183 O   0  0  0  0  0  0  0  0  0  0  0  0
  -20.5760   39.7330  -20.8666 C   0  0  0  0  0  0  0  0  0  0  0  0
  -21.8805   39.8290  -21.3890 O   0  0  0  0  0  0  0  0  0  0  0  0
  -19.4144   39.6339  -21.7491 C   0  0  0  0  0  0  0  0  0  0  0  0
  -19.0336   40.9403  -22.4005 C   0  0  0  0  0  0  0  0  0  0  0  0
  -19.5397   42.1347  -21.6584 C   0  0  0  0  0  0  0  0  0  0  0  0
  -18.7001   42.4461  -20.4365 C   0  0  0  0  0  0  0  0  0  0  0  0
  -17.2620   42.7093  -20.8146 C   0  0  0  0  0  0  0  0  0  0  0  0
  -16.9908   42.3153  -22.2506 C   0  0  0  0  0  0  0  0  0  0  0  0
  -17.5274   40.9383  -22.5577 C   0  0  0  0  0  0  0  0  0  0  0  0
  -16.3878   41.8689  -19.9056 C   0  0  0  0  0  0  0  0  0  0  0  0
  -16.1412   42.6921  -18.6646 C   0  0  0  0  0  0  0  0  0  0  0  0
  -15.2334   43.7574  -19.0114 N   0  0  0  0  0  0  0  0  0  0  0  0
  -14.1025   44.1644  -18.2892 C   0  0  0  0  0  0  0  0  0  0  0  0
  -13.0479   43.2574  -18.0930 C   0  0  0  0  0  0  0  0  0  0  0  0
  -11.9178   43.5970  -17.3870 C   0  0  0  0  0  0  0  0  0  0  0  0
  -10.8622   42.7257  -17.1766 O   0  0  0  0  0  0  0  0  0  0  0  0
  -10.5259   42.4134  -15.8452 C   0  0  0  0  0  0  0  0  0  0  0  0
   -9.8692   43.4409  -15.2092 F   0  0  0  0  0  0  0  0  0  0  0  0
  -11.7304   42.1340  -15.2010 F   0  0  0  0  0  0  0  0  0  0  0  0
   -9.6786   41.3011  -15.7902 F   0  0  0  0  0  0  0  0  0  0  0  0
  -11.8473   44.8697  -16.8699 C   0  0  0  0  0  0  0  0  0  0  0  0
  -12.8892   45.7766  -17.0598 C   0  0  0  0  0  0  0  0  0  0  0  0
  -14.0238   45.4324  -17.7701 C   0  0  0  0  0  0  0  0  0  0  0  0
  -15.3162   46.6266  -17.9831 Cl  0  0  0  0  0  0  0  0  0  0  0  0
  -15.5682   44.4725  -20.2524 C   0  0  0  0  0  0  0  0  0  0  0  0
  -17.0021   44.1834  -20.6559 C   0  0  0  0  0  0  0  0  0  0  0  0
  1  2  2  0
  2  3  1  0
  2  4  1  0
  4  5  1  0
  5  6  1  0
  6  7  1  0
  7  8  1  0
  8  9  1  0
  9 10  1  0
  8 11  1  0
 11 12  1  0
 12 13  1  0
 13 14  1  0
 14 15  2  0
 15 16  1  0
 16 17  1  0
 17 18  1  0
 18 19  1  0
 18 20  1  0
 18 21  1  0
 16 22  2  0
 22 23  1  0
 23 24  2  0
 24 25  1  0
 13 26  1  0
 26 27  1  0
 10  5  1  0
 24 14  1  0
 27  8  1  0
M  END
$$$$
