
     RDKit          3D

 30 34  0  0  0  0  0  0  0  0999 V2000
  -18.6981   41.4434  -23.2744 C   0  0  0  0  0  0  0  0  0  0  0  0
  -18.5792   42.7377  -23.9442 C   0  0  0  0  0  0  0  0  0  0  0  0
  -19.2052   42.9256  -25.1369 N   0  0  0  0  0  0  0  0  0  0  0  0
  -19.1281   44.0986  -25.8075 C   0  0  0  0  0  0  0  0  0  0  0  0
  -18.4115   45.0961  -25.2711 N   0  0  0  0  0  0  0  0  0  0  0  0
  -17.7776   44.9552  -24.0969 C   0  0  0  0  0  0  0  0  0  0  0  0
  -17.0966   45.8925  -23.5796 O   0  0  0  0  0  0  0  0  0  0  0  0
  -17.8438   43.7503  -23.3853 C   0  0  0  0  0  0  0  0  0  0  0  0
  -17.1740   43.5418  -22.0868 C   0  0  0  0  0  0  0  0  0  0  0  0
  -17.0109   44.8804  -21.4185 C   0  0  0  0  0  0  0  0  0  0  0  0
  -16.2307   44.8720  -20.2286 N   0  0  0  0  0  0  0  0  0  0  0  0
  -14.9223   45.4263  -20.3157 C   0  0  0  0  0  0  0  0  0  0  0  0
  -14.3885   45.5358  -18.8930 C   0  0  0  0  0  0  0  0  0  0  0  0
  -14.0198   44.1396  -18.4445 C   0  0  0  0  0  0  0  0  0  0  0  0
  -14.0683   44.0079  -16.9650 C   0  0  0  0  0  0  0  0  0  0  0  0
  -14.8301   44.7021  -16.0815 N   0  0  0  0  0  0  0  0  0  0  0  0
  -14.5919   44.3028  -14.8794 O   0  0  0  0  0  0  0  0  0  0  0  0
  -13.6928   43.3497  -14.8443 C   0  0  0  0  0  0  0  0  0  0  0  0
  -13.1203   42.6192  -13.8215 C   0  0  0  0  0  0  0  0  0  0  0  0
  -12.1707   41.6514  -14.0968 C   0  0  0  0  0  0  0  0  0  0  0  0
  -11.5945   40.9186  -13.0886 F   0  0  0  0  0  0  0  0  0  0  0  0
  -11.8236   41.4480  -15.4159 C   0  0  0  0  0  0  0  0  0  0  0  0
  -12.3975   42.1800  -16.4408 C   0  0  0  0  0  0  0  0  0  0  0  0
  -13.3392   43.1407  -16.1729 C   0  0  0  0  0  0  0  0  0  0  0  0
  -14.9254   43.1134  -19.0826 C   0  0  0  0  0  0  0  0  0  0  0  0
  -16.2593   43.6680  -19.4712 C   0  0  0  0  0  0  0  0  0  0  0  0
  -18.3454   46.3335  -26.0087 C   0  0  0  0  0  0  0  0  0  0  0  0
  -17.9302   45.9818  -27.4241 C   0  0  0  0  0  0  0  0  0  0  0  0
  -18.9237   45.0531  -28.0726 C   0  0  0  0  0  0  0  0  0  0  0  0
  -19.8076   44.3247  -27.1111 C   0  0  0  0  0  0  0  0  0  0  0  0
  1  2  1  0
  2  3  1  0
  3  4  2  0
  4  5  1  0
  5  6  1  0
  6  7  2  0
  6  8  1  0
  8  9  1  0
  9 10  1  0
 10 11  1  0
 11 12  1  0
 12 13  1  0
 13 14  1  0
 14 15  1  0
 15 16  2  0
 16 17  1  0
 17 18  1  0
 18 19  2  0
 19 20  1  0
 20 21  1  0
 20 22  2  0
 22 23  1  0
 23 24  2  0
 14 25  1  0
 25 26  1  0
  5 27  1  0
 27 28  1  0
 28 29  1  0
 29 30  1  0
  8  2  2  0
 26 11  1  0
 30  4  1  0
 24 15  1  0
 24 18  1  0
M  END
$$$$
