
     RDKit          3D

 18 20  0  0  0  0  0  0  0  0999 V2000
  -33.9284    9.0578  -17.3775 O   0  0  0  0  0  0  0  0  0  0  0  0
  -33.1588   10.0010  -18.0055 C   0  0  0  0  0  0  0  0  0  0  0  0
  -31.9679    9.7024  -18.6409 C   0  0  0  0  0  0  0  0  0  0  0  0
  -31.2026   10.6580  -19.2687 C   0  0  0  0  0  0  0  0  0  0  0  0
  -31.6288   11.9592  -19.2697 C   0  0  0  0  0  0  0  0  0  0  0  0
  -30.8259   12.9974  -19.9352 C   0  0  0  0  0  0  0  0  0  0  0  0
  -29.4730   12.9736  -20.0807 N   0  0  0  0  0  0  0  0  0  0  0  0
  -29.0745   14.0773  -20.7348 C   0  0  0  0  0  0  0  0  0  0  0  0
  -27.8432   14.5497  -21.1392 C   0  0  0  0  0  0  0  0  0  0  0  0
  -27.7051   15.7500  -21.8159 C   0  0  0  0  0  0  0  0  0  0  0  0
  -26.4738   16.2381  -22.2289 O   0  0  0  0  0  0  0  0  0  0  0  0
  -28.8479   16.4713  -22.0788 C   0  0  0  0  0  0  0  0  0  0  0  0
  -30.0859   15.9852  -21.6661 C   0  0  0  0  0  0  0  0  0  0  0  0
  -31.6826   16.9680  -22.0198 Br  0  0  0  0  0  0  0  0  0  0  0  0
  -30.2234   14.7884  -20.9914 C   0  0  0  0  0  0  0  0  0  0  0  0
  -31.2257   14.0925  -20.4910 O   0  0  0  0  0  0  0  0  0  0  0  0
  -32.7958   12.3008  -18.6564 C   0  0  0  0  0  0  0  0  0  0  0  0
  -33.5421   11.3381  -18.0383 C   0  0  0  0  0  0  0  0  0  0  0  0
  1  2  1  0
  2  3  2  0
  3  4  1  0
  4  5  2  0
  5  6  1  0
  6  7  2  0
  7  8  1  0
  8  9  2  0
  9 10  1  0
 10 11  1  0
 10 12  2  0
 12 13  1  0
 13 14  1  0
 13 15  2  0
 15 16  1  0
  5 17  1  0
 17 18  2  0
 18  2  1  0
 16  6  1  0
 15  8  1  0
M  END
$$$$
