
     RDKit          3D

 15 16  0  0  0  0  0  0  0  0999 V2000
  -16.7693   -3.0077  -31.4399 C   0  0  0  0  0  0  0  0  0  0  0  0
  -16.4409   -1.5631  -31.4986 C   0  0  0  0  0  0  0  0  0  0  0  0
  -15.2040   -1.1257  -31.9215 C   0  0  0  0  0  0  0  0  0  0  0  0
  -14.9141    0.2202  -31.9705 C   0  0  0  0  0  0  0  0  0  0  0  0
  -13.6564    0.7349  -32.3977 N   0  0  0  0  0  0  0  0  0  0  0  0
  -12.7818    0.1043  -33.1800 N   0  0  0  0  0  0  0  0  0  0  0  0
  -11.7034    0.8511  -33.3964 C   0  0  0  0  0  0  0  0  0  0  0  0
  -10.5319    0.4499  -34.2266 C   0  0  0  0  0  0  0  0  0  0  0  0
  -11.8871    2.0218  -32.7225 C   0  0  0  0  0  0  0  0  0  0  0  0
  -13.1158    1.9329  -32.1019 C   0  0  0  0  0  0  0  0  0  0  0  0
  -13.7064    2.9965  -31.2605 C   0  0  0  0  0  0  0  0  0  0  0  0
  -15.8734    1.0780  -31.5943 N   0  0  0  0  0  0  0  0  0  0  0  0
  -17.0799    0.6575  -31.1816 C   0  0  0  0  0  0  0  0  0  0  0  0
  -18.0774    1.6122  -30.7879 N   0  0  0  0  0  0  0  0  0  0  0  0
  -17.3550   -0.6499  -31.1363 N   0  0  0  0  0  0  0  0  0  0  0  0
  1  2  1  0
  2  3  2  0
  3  4  1  0
  4  5  1  0
  5  6  1  0
  6  7  2  0
  7  8  1  0
  7  9  1  0
  9 10  2  0
 10 11  1  0
  4 12  2  0
 12 13  1  0
 13 14  1  0
 13 15  2  0
 15  2  1  0
 10  5  1  0
M  END
$$$$
