
     RDKit          3D

 29 31  0  0  0  0  0  0  0  0999 V2000
  -27.4199   15.9796  -20.0839 N   0  0  0  0  0  0  0  0  0  0  0  0
  -27.3767   14.5883  -20.2423 C   0  0  0  0  0  0  0  0  0  0  0  0
  -26.2062   14.1010  -20.3628 O   0  0  0  0  0  0  0  0  0  0  0  0
  -28.4974   13.6857  -20.2756 C   0  0  0  0  0  0  0  0  0  0  0  0
  -28.4790   12.6119  -19.3573 C   0  0  0  0  0  0  0  0  0  0  0  0
  -29.5330   11.7402  -19.3204 C   0  0  0  0  0  0  0  0  0  0  0  0
  -30.5800   11.9478  -20.1892 C   0  0  0  0  0  0  0  0  0  0  0  0
  -31.6917   11.0375  -20.1522 N   0  0  0  0  0  0  0  0  0  0  0  0
  -31.9715   10.2576  -21.3167 C   0  0  0  0  0  0  0  0  0  0  0  0
  -31.2513   10.5579  -22.5024 N   0  0  0  0  0  0  0  0  0  0  0  0
  -32.8365    9.3313  -21.2812 O   0  0  0  0  0  0  0  0  0  0  0  0
  -32.4995   10.8980  -18.9945 C   0  0  0  0  0  0  0  0  0  0  0  0
  -33.4875   11.8170  -18.7493 C   0  0  0  0  0  0  0  0  0  0  0  0
  -33.7031   12.8458  -19.5974 F   0  0  0  0  0  0  0  0  0  0  0  0
  -34.3068   11.7261  -17.6185 C   0  0  0  0  0  0  0  0  0  0  0  0
  -34.1233   10.6914  -16.7248 C   0  0  0  0  0  0  0  0  0  0  0  0
  -33.1350    9.7708  -16.9684 C   0  0  0  0  0  0  0  0  0  0  0  0
  -32.3203    9.8673  -18.0996 C   0  0  0  0  0  0  0  0  0  0  0  0
  -31.3508    8.9465  -18.3162 F   0  0  0  0  0  0  0  0  0  0  0  0
  -30.5816   12.9719  -21.0562 N   0  0  0  0  0  0  0  0  0  0  0  0
  -29.5399   13.8665  -21.1228 C   0  0  0  0  0  0  0  0  0  0  0  0
  -29.5829   14.9504  -22.0821 C   0  0  0  0  0  0  0  0  0  0  0  0
  -28.7918   14.9475  -23.2437 C   0  0  0  0  0  0  0  0  0  0  0  0
  -28.8785   15.9520  -24.1658 C   0  0  0  0  0  0  0  0  0  0  0  0
  -29.7663   16.9903  -23.9439 C   0  0  0  0  0  0  0  0  0  0  0  0
  -29.8369   17.9764  -24.8685 F   0  0  0  0  0  0  0  0  0  0  0  0
  -30.5538   17.0064  -22.8014 C   0  0  0  0  0  0  0  0  0  0  0  0
  -30.4633   15.9910  -21.8734 C   0  0  0  0  0  0  0  0  0  0  0  0
  -31.2148   15.9724  -20.7491 F   0  0  0  0  0  0  0  0  0  0  0  0
  1  2  1  0
  2  3  2  0
  2  4  1  0
  4  5  2  0
  5  6  1  0
  6  7  2  0
  7  8  1  0
  8  9  1  0
  9 10  1  0
  9 11  2  0
  8 12  1  0
 12 13  2  0
 13 14  1  0
 13 15  1  0
 15 16  2  0
 16 17  1  0
 17 18  2  0
 18 19  1  0
  7 20  1  0
 20 21  2  0
 21 22  1  0
 22 23  2  0
 23 24  1  0
 24 25  2  0
 25 26  1  0
 25 27  1  0
 27 28  2  0
 28 29  1  0
 21  4  1  0
 28 22  1  0
 18 12  1  0
M  END
$$$$
