
     RDKit          3D

 35 38  0  0  0  0  0  0  0  0999 V2000
   -7.8393   20.9543  -44.5800 C   0  0  0  0  0  0  0  0  0  0  0  0
   -8.5133   20.9859  -43.2264 C   0  0  0  0  0  0  0  0  0  0  0  0
   -9.4097   19.8133  -43.0890 C   0  0  0  0  0  0  0  0  0  0  0  0
   -9.5382   19.0142  -44.0425 O   0  0  0  0  0  0  0  0  0  0  0  0
  -10.1210   19.5942  -41.8825 N   0  0  0  0  0  0  0  0  0  0  0  0
  -11.1047   18.6002  -41.7592 C   0  0  0  0  0  0  0  0  0  0  0  0
  -11.5353   17.9123  -42.8652 C   0  0  0  0  0  0  0  0  0  0  0  0
  -12.5136   16.9151  -42.7365 C   0  0  0  0  0  0  0  0  0  0  0  0
  -13.0397   16.6282  -41.5064 C   0  0  0  0  0  0  0  0  0  0  0  0
  -12.6084   17.3222  -40.3755 C   0  0  0  0  0  0  0  0  0  0  0  0
  -13.1321   17.0357  -39.1389 O   0  0  0  0  0  0  0  0  0  0  0  0
  -14.3956   17.3470  -38.7210 C   0  0  0  0  0  0  0  0  0  0  0  0
  -15.2318   18.0495  -39.5173 N   0  0  0  0  0  0  0  0  0  0  0  0
  -16.4775   18.3555  -39.0985 C   0  0  0  0  0  0  0  0  0  0  0  0
  -17.2863   19.0952  -40.0192 N   0  0  0  0  0  0  0  0  0  0  0  0
  -16.7160   19.3570  -41.3093 C   0  0  0  0  0  0  0  0  0  0  0  0
  -15.3732   19.2172  -41.5556 C   0  0  0  0  0  0  0  0  0  0  0  0
  -14.8563   19.4618  -42.8231 C   0  0  0  0  0  0  0  0  0  0  0  0
  -15.6354   19.8475  -43.8793 C   0  0  0  0  0  0  0  0  0  0  0  0
  -15.1626   20.0797  -45.2002 N   0  0  0  0  0  0  0  0  0  0  0  0
  -15.8019   19.4694  -46.3465 C   0  0  0  0  0  0  0  0  0  0  0  0
  -15.8108   20.3128  -47.5707 C   0  0  0  0  0  0  0  0  0  0  0  0
  -14.6809   21.1692  -47.7406 N   0  0  0  0  0  0  0  0  0  0  0  0
  -14.9768   22.1397  -48.7719 C   0  0  0  0  0  0  0  0  0  0  0  0
  -14.3493   21.8995  -46.5295 C   0  0  0  0  0  0  0  0  0  0  0  0
  -14.0045   20.9061  -45.4178 C   0  0  0  0  0  0  0  0  0  0  0  0
  -17.0032   19.9849  -43.6039 C   0  0  0  0  0  0  0  0  0  0  0  0
  -17.5262   19.7466  -42.3570 C   0  0  0  0  0  0  0  0  0  0  0  0
  -18.8914   19.9019  -42.1538 O   0  0  0  0  0  0  0  0  0  0  0  0
  -19.8384   19.8288  -43.1772 C   0  0  0  0  0  0  0  0  0  0  0  0
  -16.9306   17.9803  -37.8923 N   0  0  0  0  0  0  0  0  0  0  0  0
  -16.1369   17.2758  -37.0555 C   0  0  0  0  0  0  0  0  0  0  0  0
  -14.8475   16.9629  -37.4976 C   0  0  0  0  0  0  0  0  0  0  0  0
  -13.8721   16.0451  -36.3694 Cl  0  0  0  0  0  0  0  0  0  0  0  0
  -11.6494   18.2912  -40.5412 C   0  0  0  0  0  0  0  0  0  0  0  0
  1  2  1  0
  2  3  1  0
  3  4  2  0
  3  5  1  0
  5  6  1  0
  6  7  2  0
  7  8  1  0
  8  9  2  0
  9 10  1  0
 10 11  1  0
 11 12  1  0
 12 13  2  0
 13 14  1  0
 14 15  1  0
 15 16  1  0
 16 17  2  0
 17 18  1  0
 18 19  2  0
 19 20  1  0
 20 21  1  0
 21 22  1  0
 22 23  1  0
 23 24  1  0
 23 25  1  0
 25 26  1  0
 19 27  1  0
 27 28  2  0
 28 29  1  0
 29 30  1  0
 14 31  2  0
 31 32  1  0
 32 33  2  0
 33 34  1  0
 10 35  2  0
 35  6  1  0
 33 12  1  0
 28 16  1  0
 26 20  1  0
M  END
$$$$
