
     RDKit          3D

 40 44  0  0  0  0  0  0  0  0999 V2000
  -15.8951   17.3876  -41.9871 C   0  0  0  0  0  0  0  0  0  0  0  0
  -14.5567   18.0392  -42.0474 C   0  0  0  0  0  0  0  0  0  0  0  0
  -13.9042   18.3453  -43.2589 C   0  0  0  0  0  0  0  0  0  0  0  0
  -14.3871   18.0769  -44.5597 N   0  0  0  0  0  0  0  0  0  0  0  0
  -15.2700   18.9799  -45.2377 C   0  0  0  0  0  0  0  0  0  0  0  0
  -15.6397   20.0485  -44.6794 O   0  0  0  0  0  0  0  0  0  0  0  0
  -15.7462   18.7232  -46.5033 O   0  0  0  0  0  0  0  0  0  0  0  0
  -16.6218   19.5332  -47.2413 C   0  0  0  0  0  0  0  0  0  0  0  0
  -16.1498   20.9148  -47.5281 C   0  0  2  0  0  0  0  0  0  0  0  0
  -17.2997   21.6324  -48.2406 C   0  0  0  0  0  0  0  0  0  0  0  0
  -16.9663   22.8967  -48.6553 O   0  0  0  0  0  0  0  0  0  0  0  0
  -15.7824   22.9615  -49.3625 C   0  0  0  0  0  0  0  0  0  0  0  0
  -14.6796   22.4350  -48.4757 C   0  0  0  0  0  0  0  0  0  0  0  0
  -14.9373   20.9994  -48.2843 N   0  0  0  0  0  0  0  0  0  0  0  0
  -12.7190   18.9227  -42.9061 C   0  0  0  0  0  0  0  0  0  0  0  0
  -12.6214   18.9807  -41.5570 N   0  0  0  0  0  0  0  0  0  0  0  0
  -11.6518   19.4483  -40.7859 N   0  0  0  0  0  0  0  0  0  0  0  0
  -11.7522   19.4023  -39.4325 C   0  0  0  0  0  0  0  0  0  0  0  0
  -12.8573   18.8731  -38.8882 N   0  0  0  0  0  0  0  0  0  0  0  0
  -13.8469   18.3968  -39.6611 C   0  0  0  0  0  0  0  0  0  0  0  0
  -14.9758   17.8725  -39.0113 N   0  0  0  0  0  0  0  0  0  0  0  0
  -15.0377   17.6839  -37.5761 C   0  0  0  0  0  0  0  0  0  0  0  0
  -13.9502   17.3532  -36.8220 C   0  0  0  0  0  0  0  0  0  0  0  0
  -14.0402   17.1987  -35.4305 C   0  0  0  0  0  0  0  0  0  0  0  0
  -15.2435   17.3782  -34.7774 C   0  0  0  0  0  0  0  0  0  0  0  0
  -16.3385   17.7118  -35.5425 C   0  0  0  0  0  0  0  0  0  0  0  0
  -17.3938   17.8341  -34.6589 C   0  0  0  0  0  0  0  0  0  0  0  0
  -16.8957   17.5747  -33.4407 N   0  0  0  0  0  0  0  0  0  0  0  0
  -15.6245   17.3011  -33.4803 N   0  0  0  0  0  0  0  0  0  0  0  0
  -14.7635   16.9581  -32.3405 C   0  0  0  0  0  0  0  0  0  0  0  0
  -14.8816   15.4725  -32.1952 C   0  0  0  0  0  0  0  0  0  0  0  0
  -14.0652   14.5755  -32.8389 C   0  0  0  0  0  0  0  0  0  0  0  0
  -14.2111   13.2144  -32.6757 C   0  0  0  0  0  0  0  0  0  0  0  0
  -15.1892   12.6953  -31.8538 C   0  0  0  0  0  0  0  0  0  0  0  0
  -16.0179   13.5751  -31.1995 C   0  0  0  0  0  0  0  0  0  0  0  0
  -17.0101   13.1416  -30.3695 F   0  0  0  0  0  0  0  0  0  0  0  0
  -15.8739   14.9336  -31.3613 C   0  0  0  0  0  0  0  0  0  0  0  0
  -16.2448   17.8641  -36.9226 C   0  0  0  0  0  0  0  0  0  0  0  0
  -13.7558   18.4361  -41.0157 C   0  0  0  0  0  0  0  0  0  0  0  0
  -15.0943   17.9555  -39.6465 Cl  0  0  0  0  0  0  0  0  0  0  0  0
  1  2  1  0
  2  3  1  0
  3  4  1  0
  4  5  1  0
  5  6  2  0
  5  7  1  0
  7  8  1  0
  9  8  1  6
  9 10  1  0
 10 11  1  0
 11 12  1  0
 12 13  1  0
 13 14  1  0
  3 15  2  0
 15 16  1  0
 16 17  1  0
 17 18  2  0
 18 19  1  0
 19 20  2  0
 20 21  1  0
 21 22  1  0
 22 23  2  0
 23 24  1  0
 24 25  2  0
 25 26  1  0
 26 27  1  0
 27 28  2  0
 28 29  1  0
 29 30  1  0
 30 31  1  0
 31 32  2  0
 32 33  1  0
 33 34  2  0
 34 35  1  0
 35 36  1  0
 35 37  2  0
 26 38  2  0
 20 39  1  0
 39  2  2  0
 14  9  1  0
 39 16  1  0
 38 22  1  0
 29 25  1  0
 37 31  1  0
M  END
$$$$
