
     RDKit          3D

 27 30  0  0  0  0  0  0  0  0999 V2000
  -29.2984   12.5940  -25.8783 C   0  0  0  0  0  0  0  0  0  0  0  0
  -27.8138   12.4414  -25.7815 C   0  0  0  0  0  0  0  0  0  0  0  0
  -27.0957   13.7533  -25.6058 C   0  0  0  0  0  0  0  0  0  0  0  0
  -26.4668   13.8963  -24.2598 C   0  0  0  0  0  0  0  0  0  0  0  0
  -27.1363   14.8708  -23.4237 N   0  0  0  0  0  0  0  0  0  0  0  0
  -27.0204   16.2234  -23.5954 C   0  0  0  0  0  0  0  0  0  0  0  0
  -26.2189   16.8306  -24.6035 N   0  0  0  0  0  0  0  0  0  0  0  0
  -25.1903   17.7596  -24.3252 C   0  0  0  0  0  0  0  0  0  0  0  0
  -24.7328   17.8182  -23.1605 O   0  0  0  0  0  0  0  0  0  0  0  0
  -24.6441   18.6489  -25.3503 C   0  0  0  0  0  0  0  0  0  0  0  0
  -24.9738   18.8608  -26.6325 C   0  0  0  0  0  0  0  0  0  0  0  0
  -24.2546   19.7431  -27.3440 C   0  0  0  0  0  0  0  0  0  0  0  0
  -23.2231   20.3953  -26.7620 C   0  0  0  0  0  0  0  0  0  0  0  0
  -23.2255   19.7371  -25.0458 S   0  0  0  0  0  0  0  0  0  0  0  0
  -27.8059   16.7742  -22.6096 C   0  0  0  0  0  0  0  0  0  0  0  0
  -27.9873   18.1733  -22.3984 C   0  0  0  0  0  0  0  0  0  0  0  0
  -28.1532   19.3080  -22.2189 N   0  0  0  0  0  0  0  0  0  0  0  0
  -28.3998   15.7753  -21.8382 C   0  0  0  0  0  0  0  0  0  0  0  0
  -29.2311   15.8024  -20.7818 N   0  0  0  0  0  0  0  0  0  0  0  0
  -29.6321   14.6345  -20.2486 C   0  0  0  0  0  0  0  0  0  0  0  0
  -30.4828   14.5893  -19.1657 C   0  0  0  0  0  0  0  0  0  0  0  0
  -30.8919   13.3989  -18.6215 C   0  0  0  0  0  0  0  0  0  0  0  0
  -30.4708   12.1893  -19.1324 C   0  0  0  0  0  0  0  0  0  0  0  0
  -29.6200   12.2222  -20.2153 C   0  0  0  0  0  0  0  0  0  0  0  0
  -29.1976   13.4365  -20.7773 C   0  0  0  0  0  0  0  0  0  0  0  0
  -28.3619   13.4239  -21.8396 N   0  0  0  0  0  0  0  0  0  0  0  0
  -27.9499   14.5956  -22.3869 C   0  0  0  0  0  0  0  0  0  0  0  0
  1  2  1  0
  2  3  1  0
  3  4  1  0
  4  5  1  0
  5  6  1  0
  6  7  1  0
  7  8  1  0
  8  9  2  0
  8 10  1  0
 10 11  2  0
 11 12  1  0
 12 13  2  0
 13 14  1  0
  6 15  2  0
 15 16  1  0
 16 17  3  0
 15 18  1  0
 18 19  2  0
 19 20  1  0
 20 21  2  0
 21 22  1  0
 22 23  2  0
 23 24  1  0
 24 25  2  0
 25 26  1  0
 26 27  2  0
 27  5  1  0
 14 10  1  0
 27 18  1  0
 25 20  1  0
M  END
$$$$
