
     RDKit          3D

 33 36  0  0  0  0  0  0  0  0999 V2000
  -24.3234   17.3384  -29.7256 C   0  0  0  0  0  0  0  0  0  0  0  0
  -22.9523   16.9306  -30.1914 C   0  0  0  0  0  0  0  0  0  0  0  0
  -22.7134   17.2204  -31.5431 O   0  0  0  0  0  0  0  0  0  0  0  0
  -22.2377   16.2989  -32.4457 C   0  0  0  0  0  0  0  0  0  0  0  0
  -21.4090   15.4435  -32.0778 O   0  0  0  0  0  0  0  0  0  0  0  0
  -22.6819   16.2819  -33.8731 C   0  0  0  0  0  0  0  0  0  0  0  0
  -22.2265   14.9080  -34.4222 C   0  0  0  0  0  0  0  0  0  0  0  0
  -22.2825   17.2392  -34.6429 O   0  0  0  0  0  0  0  0  0  0  0  0
  -21.8986   18.2207  -35.3876 C   0  0  0  0  0  0  0  0  0  0  0  0
  -22.4604   19.5067  -35.2340 C   0  0  0  0  0  0  0  0  0  0  0  0
  -22.0073   20.4965  -36.0552 C   0  0  0  0  0  0  0  0  0  0  0  0
  -21.0409   20.3031  -37.0138 C   0  0  0  0  0  0  0  0  0  0  0  0
  -20.4749   19.0658  -37.1885 C   0  0  0  0  0  0  0  0  0  0  0  0
  -19.4965   18.8380  -38.1480 C   0  0  0  0  0  0  0  0  0  0  0  0
  -19.1068   19.7823  -38.8861 O   0  0  0  0  0  0  0  0  0  0  0  0
  -18.9409   17.6274  -38.3210 N   0  0  0  0  0  0  0  0  0  0  0  0
  -17.9118   17.3946  -39.3328 C   0  0  0  0  0  0  0  0  0  0  0  0
  -16.5683   17.7572  -38.8051 C   0  0  0  0  0  0  0  0  0  0  0  0
  -16.1488   17.3421  -37.6968 O   0  0  0  0  0  0  0  0  0  0  0  0
  -15.7231   18.6038  -39.5778 N   0  0  0  0  0  0  0  0  0  0  0  0
  -14.3358   18.3138  -39.6820 C   0  0  0  0  0  0  0  0  0  0  0  0
  -13.5427   18.0580  -38.5845 C   0  0  0  0  0  0  0  0  0  0  0  0
  -12.2010   17.7825  -38.7469 C   0  0  0  0  0  0  0  0  0  0  0  0
  -11.5910   17.7478  -39.9811 C   0  0  0  0  0  0  0  0  0  0  0  0
  -12.3946   18.0058  -41.0770 C   0  0  0  0  0  0  0  0  0  0  0  0
  -13.7434   18.2839  -40.9301 C   0  0  0  0  0  0  0  0  0  0  0  0
  -11.7857   17.9728  -42.3308 O   0  0  0  0  0  0  0  0  0  0  0  0
  -10.4871   17.4297  -42.4853 C   0  0  0  0  0  0  0  0  0  0  0  0
   -9.6318   17.9613  -41.3395 C   0  0  0  0  0  0  0  0  0  0  0  0
  -10.2400   17.4706  -40.1458 O   0  0  0  0  0  0  0  0  0  0  0  0
  -19.3622   16.6253  -37.5295 C   0  0  0  0  0  0  0  0  0  0  0  0
  -20.3322   16.8049  -36.5623 C   0  0  0  0  0  0  0  0  0  0  0  0
  -20.9106   18.0537  -36.3783 C   0  0  0  0  0  0  0  0  0  0  0  0
  1  2  1  0
  2  3  1  0
  3  4  1  0
  4  5  2  0
  4  6  1  0
  6  7  1  0
  6  8  1  0
  8  9  1  0
  9 10  2  0
 10 11  1  0
 11 12  2  0
 12 13  1  0
 13 14  1  0
 14 15  2  0
 14 16  1  0
 16 17  1  0
 17 18  1  0
 18 19  2  0
 18 20  1  0
 20 21  1  0
 21 22  2  0
 22 23  1  0
 23 24  2  0
 24 25  1  0
 25 26  2  0
 25 27  1  0
 27 28  1  0
 28 29  1  0
 29 30  1  0
 16 31  1  0
 31 32  2  0
 32 33  1  0
 33  9  1  0
 33 13  2  0
 26 21  1  0
 30 24  1  0
M  END
$$$$
