
     RDKit          3D

 37 40  0  0  0  0  0  0  0  0999 V2000
  -10.9457   47.8001  -17.0171 C   0  0  0  0  0  0  0  0  0  0  0  0
  -12.3311   47.9092  -16.8637 O   0  0  0  0  0  0  0  0  0  0  0  0
  -13.2353   47.1385  -17.5804 C   0  0  0  0  0  0  0  0  0  0  0  0
  -13.3825   47.3222  -18.9457 C   0  0  0  0  0  0  0  0  0  0  0  0
  -14.2735   46.5705  -19.6834 C   0  0  0  0  0  0  0  0  0  0  0  0
  -14.4396   46.7244  -21.0063 N   0  0  0  0  0  0  0  0  0  0  0  0
  -15.3005   46.0051  -21.7452 C   0  0  0  0  0  0  0  0  0  0  0  0
  -16.0450   45.0629  -21.0929 N   0  0  0  0  0  0  0  0  0  0  0  0
  -15.9155   44.8704  -19.7690 C   0  0  0  0  0  0  0  0  0  0  0  0
  -16.6918   43.9034  -19.1508 O   0  0  0  0  0  0  0  0  0  0  0  0
  -17.6232   43.1716  -19.8616 C   0  0  0  0  0  0  0  0  0  0  0  0
  -18.8882   43.6956  -20.0193 C   0  0  0  0  0  0  0  0  0  0  0  0
  -19.8389   42.9874  -20.7242 C   0  0  0  0  0  0  0  0  0  0  0  0
  -19.4956   41.7441  -21.2671 C   0  0  0  0  0  0  0  0  0  0  0  0
  -18.2341   41.2060  -21.1181 C   0  0  0  0  0  0  0  0  0  0  0  0
  -17.9475   39.9384  -21.6933 N   0  0  0  0  0  0  0  0  0  0  0  0
  -18.6563   38.7564  -21.2569 C   0  0  0  0  0  0  0  0  0  0  0  0
  -18.7853   38.5789  -20.0369 O   0  0  0  0  0  0  0  0  0  0  0  0
  -19.1874   37.8300  -22.1637 N   0  0  0  0  0  0  0  0  0  0  0  0
  -19.1735   36.4256  -21.9942 C   0  0  0  0  0  0  0  0  0  0  0  0
  -20.2090   35.5246  -21.9904 C   0  0  0  0  0  0  0  0  0  0  0  0
  -19.6905   34.2526  -21.7857 C   0  0  0  0  0  0  0  0  0  0  0  0
  -20.3940   32.9768  -21.7037 C   0  0  0  0  0  0  0  0  0  0  0  0
  -19.4999   31.7887  -21.9914 C   0  0  0  0  0  0  0  0  0  0  0  0
  -21.4827   32.9472  -22.7644 C   0  0  0  0  0  0  0  0  0  0  0  0
  -21.0079   32.7782  -20.3617 C   0  0  0  0  0  0  0  0  0  0  0  0
  -21.7851   31.6497  -20.3323 F   0  0  0  0  0  0  0  0  0  0  0  0
  -21.7658   33.9079  -20.0735 F   0  0  0  0  0  0  0  0  0  0  0  0
  -20.0269   32.6996  -19.3737 F   0  0  0  0  0  0  0  0  0  0  0  0
  -18.3726   34.4331  -21.6748 O   0  0  0  0  0  0  0  0  0  0  0  0
  -18.0664   35.6697  -21.7922 N   0  0  0  0  0  0  0  0  0  0  0  0
  -17.3021   41.9257  -20.4137 C   0  0  0  0  0  0  0  0  0  0  0  0
  -15.0317   45.6100  -19.0151 C   0  0  0  0  0  0  0  0  0  0  0  0
  -14.8708   45.4431  -17.6595 C   0  0  0  0  0  0  0  0  0  0  0  0
  -13.9827   46.1898  -16.9140 C   0  0  0  0  0  0  0  0  0  0  0  0
  -13.8030   46.0434  -15.5610 O   0  0  0  0  0  0  0  0  0  0  0  0
  -14.6131   45.2137  -14.7482 C   0  0  0  0  0  0  0  0  0  0  0  0
  1  2  1  0
  2  3  1  0
  3  4  2  0
  4  5  1  0
  5  6  2  0
  6  7  1  0
  7  8  2  0
  8  9  1  0
  9 10  1  0
 10 11  1  0
 11 12  2  0
 12 13  1  0
 13 14  2  0
 14 15  1  0
 15 16  1  0
 16 17  1  0
 17 18  2  0
 17 19  1  0
 19 20  1  0
 20 21  1  0
 21 22  2  0
 22 23  1  0
 23 24  1  0
 23 25  1  0
 23 26  1  0
 26 27  1  0
 26 28  1  0
 26 29  1  0
 22 30  1  0
 30 31  1  0
 15 32  2  0
  9 33  2  0
 33 34  1  0
 34 35  2  0
 35 36  1  0
 36 37  1  0
 35  3  1  0
 33  5  1  0
 32 11  1  0
 31 20  2  0
M  END
$$$$
