
     RDKit          3D

 26 28  0  0  0  0  0  0  0  0999 V2000
  -22.5844   38.0140  -20.8946 O   0  0  0  0  0  0  0  0  0  0  0  0
  -22.0013   37.5230  -21.8747 C   0  0  0  0  0  0  0  0  0  0  0  0
  -21.1343   38.4283  -22.6930 C   0  0  0  0  0  0  0  0  0  0  0  0
  -21.6366   38.6204  -24.0284 N   0  0  0  0  0  0  0  0  0  0  0  0
  -20.6417   39.2870  -24.8634 C   0  0  0  0  0  0  0  0  0  0  0  0
  -21.2989   40.3627  -25.7353 C   0  0  0  0  0  0  0  0  0  0  0  0
  -21.7222   41.4556  -24.8817 N   0  0  0  0  0  0  0  0  0  0  0  0
  -22.4777   42.4690  -25.5325 C   0  0  0  0  0  0  0  0  0  0  0  0
  -21.8671   42.8600  -26.8451 C   0  0  0  0  0  0  0  0  0  0  0  0
  -22.3011   42.3079  -28.0317 C   0  0  0  0  0  0  0  0  0  0  0  0
  -21.7344   42.6806  -29.2361 C   0  0  0  0  0  0  0  0  0  0  0  0
  -20.7204   43.6109  -29.3071 C   0  0  0  0  0  0  0  0  0  0  0  0
  -20.2789   44.1689  -28.1208 C   0  0  0  0  0  0  0  0  0  0  0  0
  -20.8498   43.7931  -26.9148 C   0  0  0  0  0  0  0  0  0  0  0  0
  -22.4736   40.8864  -23.7947 C   0  0  0  0  0  0  0  0  0  0  0  0
  -22.8202   39.4461  -23.9794 C   0  0  0  0  0  0  0  0  0  0  0  0
  -22.1520   36.1616  -22.2073 N   0  0  0  0  0  0  0  0  0  0  0  0
  -21.4224   35.1931  -21.5227 N   0  0  0  0  0  0  0  0  0  0  0  0
  -21.6771   33.9337  -21.6496 C   0  0  0  0  0  0  0  0  0  0  0  0
  -21.6419   32.9701  -20.5594 C   0  0  0  0  0  0  0  0  0  0  0  0
  -21.5958   31.6107  -20.8226 C   0  0  0  0  0  0  0  0  0  0  0  0
  -21.5620   30.7429  -19.7659 C   0  0  0  0  0  0  0  0  0  0  0  0
  -21.5733   31.1737  -18.4554 C   0  0  0  0  0  0  0  0  0  0  0  0
  -21.6203   32.5384  -18.2369 C   0  0  0  0  0  0  0  0  0  0  0  0
  -21.6546   33.4322  -19.2733 C   0  0  0  0  0  0  0  0  0  0  0  0
  -21.7016   34.7825  -18.9453 O   0  0  0  0  0  0  0  0  0  0  0  0
  1  2  2  0
  2  3  1  0
  3  4  1  0
  4  5  1  0
  5  6  1  0
  6  7  1  0
  7  8  1  0
  8  9  1  0
  9 10  2  0
 10 11  1  0
 11 12  2  0
 12 13  1  0
 13 14  2  0
  7 15  1  0
 15 16  1  0
  2 17  1  0
 17 18  1  0
 18 19  2  0
 19 20  1  0
 20 21  2  0
 21 22  1  0
 22 23  2  0
 23 24  1  0
 24 25  2  0
 25 26  1  0
 16  4  1  0
 25 20  1  0
 14  9  1  0
M  END
$$$$
