
     RDKit          3D

 30 33  0  0  0  0  0  0  0  0999 V2000
  -18.4260   34.8630  -22.1334 O   0  0  0  0  0  0  0  0  0  0  0  0
  -19.5714   35.1624  -21.6670 C   0  0  0  0  0  0  0  0  0  0  0  0
  -20.3540   36.0537  -21.9870 O   0  0  0  0  0  0  0  0  0  0  0  0
  -20.1592   37.1577  -23.1218 C   0  0  0  0  0  0  0  0  0  0  0  0
  -19.4909   37.8694  -22.6931 C   0  0  0  0  0  0  0  0  0  0  0  0
  -18.6214   38.8290  -22.1346 C   0  0  0  0  0  0  0  0  0  0  0  0
  -17.6785   39.8594  -21.5544 C   0  0  0  0  0  0  0  0  0  0  0  0
  -17.5694   41.0955  -22.9585 S   0  0  0  0  0  0  0  0  0  0  0  0
  -17.3990   42.6750  -22.0472 C   0  0  0  0  0  0  0  0  0  0  0  0
  -16.4532   43.1728  -21.2686 N   0  0  0  0  0  0  0  0  0  0  0  0
  -16.9493   44.3650  -20.7114 N   0  0  0  0  0  0  0  0  0  0  0  0
  -18.1149   44.5430  -21.2189 C   0  0  0  0  0  0  0  0  0  0  0  0
  -19.2284   45.5757  -21.2030 C   0  0  0  0  0  0  0  0  0  0  0  0
  -18.7389   46.7435  -20.6141 C   0  0  0  0  0  0  0  0  0  0  0  0
  -19.6447   47.7103  -20.1757 C   0  0  0  0  0  0  0  0  0  0  0  0
  -20.9869   47.4763  -20.3770 C   0  0  0  0  0  0  0  0  0  0  0  0
  -21.4720   46.3177  -20.9440 C   0  0  0  0  0  0  0  0  0  0  0  0
  -22.7788   46.0437  -20.9597 C   0  0  0  0  0  0  0  0  0  0  0  0
  -23.2610   44.7943  -21.4274 C   0  0  0  0  0  0  0  0  0  0  0  0
  -22.3226   43.8506  -21.8660 C   0  0  0  0  0  0  0  0  0  0  0  0
  -20.9755   44.1318  -21.8370 C   0  0  0  0  0  0  0  0  0  0  0  0
  -20.4974   45.3650  -21.3528 C   0  0  0  0  0  0  0  0  0  0  0  0
  -18.3728   43.5083  -22.0162 O   0  0  0  0  0  0  0  0  0  0  0  0
  -20.1303   34.2139  -20.5215 C   0  0  0  0  0  0  0  0  0  0  0  0
  -19.3425   33.1033  -20.4738 C   0  0  0  0  0  0  0  0  0  0  0  0
  -20.1224   31.9175  -20.1089 C   0  0  0  0  0  0  0  0  0  0  0  0
  -21.4482   32.0241  -19.8802 C   0  0  0  0  0  0  0  0  0  0  0  0
  -22.2265   30.8620  -19.7543 F   0  0  0  0  0  0  0  0  0  0  0  0
  -22.1230   33.2217  -19.9475 C   0  0  0  0  0  0  0  0  0  0  0  0
  -21.3887   34.4154  -20.2684 C   0  0  0  0  0  0  0  0  0  0  0  0
  1  2  2  0
  2  3  1  0
  3  4  1  0
  4  5  1  0
  5  6  3  0
  6  7  1  0
  7  8  1  0
  8  9  1  0
  9 10  2  0
 10 11  1  0
 11 12  2  0
 12 13  1  0
 13 14  2  0
 14 15  1  0
 15 16  2  0
 16 17  1  0
 17 18  2  0
 18 19  1  0
 19 20  2  0
 20 21  1  0
 21 22  2  0
 12 23  1  0
  2 24  1  0
 24 25  2  0
 25 26  1  0
 26 27  2  0
 27 28  1  0
 27 29  1  0
 29 30  2  0
 23  9  1  0
 30 24  1  0
 22 13  1  0
 22 17  1  0
M  END
$$$$
