
     RDKit          3D

 29 33  0  0  0  0  0  0  0  0999 V2000
  -17.7662   16.3657  -39.0855 F   0  0  0  0  0  0  0  0  0  0  0  0
  -16.3865   16.3246  -39.3079 C   0  0  0  0  0  0  0  0  0  0  0  0
  -15.9782   15.0762  -39.6226 F   0  0  0  0  0  0  0  0  0  0  0  0
  -16.2261   17.0833  -40.4857 F   0  0  0  0  0  0  0  0  0  0  0  0
  -15.6343   16.9921  -38.2244 C   0  0  0  0  0  0  0  0  0  0  0  0
  -14.4768   17.6870  -38.4875 C   0  0  0  0  0  0  0  0  0  0  0  0
  -13.8958   17.8673  -39.7611 N   0  0  0  0  0  0  0  0  0  0  0  0
  -14.5469   18.5278  -40.8605 C   0  0  0  0  0  0  0  0  0  0  0  0
  -14.3798   17.6995  -42.1128 C   0  0  0  0  0  0  0  0  0  0  0  0
  -12.9343   17.5474  -42.4664 C   0  0  0  0  0  0  0  0  0  0  0  0
  -12.5605   18.2056  -43.7231 C   0  0  0  0  0  0  0  0  0  0  0  0
  -12.2855   19.5535  -43.8293 C   0  0  0  0  0  0  0  0  0  0  0  0
  -11.9375   20.1259  -45.0378 C   0  0  0  0  0  0  0  0  0  0  0  0
  -11.8502   19.3764  -46.1864 C   0  0  0  0  0  0  0  0  0  0  0  0
  -12.1234   18.0214  -46.0960 C   0  0  0  0  0  0  0  0  0  0  0  0
  -12.4693   17.4745  -44.8745 C   0  0  0  0  0  0  0  0  0  0  0  0
  -12.0920   17.9873  -41.2982 C   0  0  0  0  0  0  0  0  0  0  0  0
  -12.5537   17.3637  -40.0001 C   0  0  0  0  0  0  0  0  0  0  0  0
  -13.8349   18.2723  -37.3879 C   0  0  0  0  0  0  0  0  0  0  0  0
  -14.3507   18.1474  -36.1224 C   0  0  0  0  0  0  0  0  0  0  0  0
  -15.4895   17.4633  -35.8700 N   0  0  0  0  0  0  0  0  0  0  0  0
  -16.1686   17.2152  -34.7295 C   0  0  0  0  0  0  0  0  0  0  0  0
  -15.7623   17.6898  -33.3924 C   0  0  0  0  0  0  0  0  0  0  0  0
  -14.8151   16.6971  -32.7192 C   0  0  0  0  0  0  0  0  0  0  0  0
  -14.5798   16.8430  -31.2474 C   0  0  0  0  0  0  0  0  0  0  0  0
  -15.3923   15.7008  -31.7430 C   0  0  0  0  0  0  0  0  0  0  0  0
  -17.2261   16.4833  -35.0964 N   0  0  0  0  0  0  0  0  0  0  0  0
  -17.1898   16.2921  -36.4254 N   0  0  0  0  0  0  0  0  0  0  0  0
  -16.1039   16.9047  -36.9104 C   0  0  0  0  0  0  0  0  0  0  0  0
  1  2  1  0
  2  3  1  0
  2  4  1  0
  2  5  1  0
  5  6  2  0
  6  7  1  0
  7  8  1  0
  8  9  1  0
  9 10  1  0
 10 11  1  0
 11 12  2  0
 12 13  1  0
 13 14  2  0
 14 15  1  0
 15 16  2  0
 10 17  1  0
 17 18  1  0
  6 19  1  0
 19 20  2  0
 20 21  1  0
 21 22  1  0
 22 23  1  0
 23 24  1  0
 24 25  1  0
 25 26  1  0
 22 27  2  0
 27 28  1  0
 28 29  2  0
 29  5  1  0
 18  7  1  0
 29 21  1  0
 16 11  1  0
 26 24  1  0
M  END
$$$$
