
     RDKit          3D

 40 43  0  0  0  0  0  0  0  0999 V2000
  -24.6160   19.1524  -27.0700 C   0  0  0  0  0  0  0  0  0  0  0  0
  -24.0340   17.9015  -26.6317 N   0  0  0  0  0  0  0  0  0  0  0  0
  -23.0274   17.2855  -27.3936 C   0  0  0  0  0  0  0  0  0  0  0  0
  -23.1606   15.9848  -27.8483 C   0  0  0  0  0  0  0  0  0  0  0  0
  -22.1329   15.4648  -28.5977 C   0  0  0  0  0  0  0  0  0  0  0  0
  -20.9842   16.1588  -28.9204 C   0  0  0  0  0  0  0  0  0  0  0  0
  -19.9923   15.5388  -29.7047 N   0  0  0  0  0  0  0  0  0  0  0  0
  -18.7666   15.0053  -29.2336 C   0  0  0  0  0  0  0  0  0  0  0  0
  -18.3644   15.3515  -28.1174 O   0  0  0  0  0  0  0  0  0  0  0  0
  -17.9810   14.0932  -29.9826 N   0  0  0  0  0  0  0  0  0  0  0  0
  -16.7243   13.6550  -29.5025 C   0  0  0  0  0  0  0  0  0  0  0  0
  -16.1868   14.0002  -28.2849 C   0  0  0  0  0  0  0  0  0  0  0  0
  -14.9513   13.5203  -27.9048 C   0  0  0  0  0  0  0  0  0  0  0  0
  -14.2281   12.6790  -28.7472 C   0  0  0  0  0  0  0  0  0  0  0  0
  -12.9825   12.1811  -28.3924 O   0  0  0  0  0  0  0  0  0  0  0  0
  -11.7738   12.8340  -28.6508 C   0  0  0  0  0  0  0  0  0  0  0  0
  -11.7517   13.1464  -30.0019 F   0  0  0  0  0  0  0  0  0  0  0  0
  -11.6371   14.0173  -27.9591 F   0  0  0  0  0  0  0  0  0  0  0  0
  -10.7296   11.9872  -28.3518 F   0  0  0  0  0  0  0  0  0  0  0  0
  -14.7504   12.3308  -29.9557 C   0  0  0  0  0  0  0  0  0  0  0  0
  -15.9844   12.8209  -30.3140 C   0  0  0  0  0  0  0  0  0  0  0  0
  -20.8532   17.4580  -28.4644 C   0  0  0  0  0  0  0  0  0  0  0  0
  -21.8733   17.9891  -27.7147 C   0  0  0  0  0  0  0  0  0  0  0  0
  -24.5337   17.3424  -25.4278 C   0  0  0  0  0  0  0  0  0  0  0  0
  -23.7586   16.3401  -24.8492 C   0  0  0  0  0  0  0  0  0  0  0  0
  -24.2395   15.7864  -23.6829 C   0  0  0  0  0  0  0  0  0  0  0  0
  -25.3994   16.1945  -23.1342 N   0  0  0  0  0  0  0  0  0  0  0  0
  -26.1553   17.1766  -23.7054 C   0  0  0  0  0  0  0  0  0  0  0  0
  -27.3686   17.5727  -23.0942 N   0  0  0  0  0  0  0  0  0  0  0  0
  -28.1951   18.5698  -23.6651 C   0  0  0  0  0  0  0  0  0  0  0  0
  -29.4342   18.8717  -23.0835 C   0  0  0  0  0  0  0  0  0  0  0  0
  -30.2568   19.8196  -23.6001 C   0  0  0  0  0  0  0  0  0  0  0  0
  -29.8530   20.5084  -24.7372 C   0  0  0  0  0  0  0  0  0  0  0  0
  -28.6247   20.2289  -25.3375 C   0  0  0  0  0  0  0  0  0  0  0  0
  -28.1551   21.1261  -26.7729 S   0  0  0  0  0  6  0  0  0  0  0  0
  -26.4222   21.3048  -26.7470 N   0  0  0  0  0  0  0  0  0  0  0  0
  -28.6339   20.3984  -27.9708 O   0  0  0  0  0  0  0  0  0  0  0  0
  -28.7531   22.4993  -26.6923 O   0  0  0  0  0  0  0  0  0  0  0  0
  -27.7976   19.2598  -24.8005 C   0  0  0  0  0  0  0  0  0  0  0  0
  -25.6800   17.7112  -24.8400 N   0  0  0  0  0  0  0  0  0  0  0  0
  1  2  1  0
  2  3  1  0
  3  4  2  0
  4  5  1  0
  5  6  2  0
  6  7  1  0
  7  8  1  0
  8  9  2  0
  8 10  1  0
 10 11  1  0
 11 12  2  0
 12 13  1  0
 13 14  2  0
 14 15  1  0
 15 16  1  0
 16 17  1  0
 16 18  1  0
 16 19  1  0
 14 20  1  0
 20 21  2  0
  6 22  1  0
 22 23  2  0
  2 24  1  0
 24 25  2  0
 25 26  1  0
 26 27  2  0
 27 28  1  0
 28 29  1  0
 29 30  1  0
 30 31  2  0
 31 32  1  0
 32 33  2  0
 33 34  1  0
 34 35  1  0
 35 36  1  0
 35 37  2  0
 35 38  2  0
 34 39  2  0
 28 40  2  0
 23  3  1  0
 40 24  1  0
 21 11  1  0
 39 30  1  0
M  END
$$$$
