
     RDKit          3D

 24 26  0  0  0  0  0  0  0  0999 V2000
  -29.5750   11.9662  -25.7587 C   0  0  0  0  0  0  0  0  0  0  0  0
  -29.0673   12.7384  -24.5851 C   0  0  2  0  0  0  0  0  0  0  0  0
  -27.7504   12.2872  -24.1543 N   0  0  0  0  0  0  0  0  0  0  0  0
  -26.7842   13.1555  -23.5852 C   0  0  0  0  0  0  0  0  0  0  0  0
  -27.1305   14.3273  -23.3358 O   0  0  0  0  0  0  0  0  0  0  0  0
  -25.4029   12.6939  -23.2923 C   0  0  0  0  0  0  0  0  0  0  0  0
  -24.5899   13.8414  -22.8027 C   0  0  0  0  0  0  0  0  0  0  0  0
  -24.3339   13.8340  -21.3629 C   0  0  0  0  0  0  0  0  0  0  0  0
  -23.6976   14.8898  -20.8241 N   0  0  0  0  0  0  0  0  0  0  0  0
  -23.4444   14.9193  -19.5046 C   0  0  0  0  0  0  0  0  0  0  0  0
  -22.8435   15.9093  -18.9757 O   0  0  0  0  0  0  0  0  0  0  0  0
  -23.8394   13.8655  -18.7111 C   0  0  0  0  0  0  0  0  0  0  0  0
  -23.5715   13.9136  -17.3626 C   0  0  0  0  0  0  0  0  0  0  0  0
  -23.9612   12.8721  -16.5752 C   0  0  0  0  0  0  0  0  0  0  0  0
  -24.6126   11.7924  -17.1295 C   0  0  0  0  0  0  0  0  0  0  0  0
  -24.8843   11.7367  -18.4781 C   0  0  0  0  0  0  0  0  0  0  0  0
  -24.4898   12.7924  -19.2792 C   0  0  0  0  0  0  0  0  0  0  0  0
  -24.7308   12.7879  -20.6022 N   0  0  0  0  0  0  0  0  0  0  0  0
  -30.0156   12.6375  -23.4621 C   0  0  0  0  0  0  0  0  0  0  0  0
  -30.1676   11.4302  -22.7954 C   0  0  0  0  0  0  0  0  0  0  0  0
  -31.0596   11.3638  -21.7495 C   0  0  0  0  0  0  0  0  0  0  0  0
  -31.7844   12.4764  -21.3761 C   0  0  0  0  0  0  0  0  0  0  0  0
  -31.6321   13.6752  -22.0396 C   0  0  0  0  0  0  0  0  0  0  0  0
  -30.7391   13.7484  -23.0895 C   0  0  0  0  0  0  0  0  0  0  0  0
  2  1  1  6
  2  3  1  0
  3  4  1  0
  4  5  2  0
  4  6  1  0
  6  7  1  0
  7  8  1  0
  8  9  2  0
  9 10  1  0
 10 11  2  0
 10 12  1  0
 12 13  2  0
 13 14  1  0
 14 15  2  0
 15 16  1  0
 16 17  2  0
 17 18  1  0
  2 19  1  0
 19 20  2  0
 20 21  1  0
 21 22  2  0
 22 23  1  0
 23 24  2  0
 18  8  1  0
 24 19  1  0
 17 12  1  0
M  END
$$$$
