
     RDKit          3D

 15 13  0  0  0  0  0  0  0  0999 V2000
  -19.3803   17.4971  -39.6134 C   0  0  0  0  0  0  0  0  0  0  0  0
  -18.3352   18.2241  -38.8601 C   0  0  0  0  0  0  0  0  0  0  0  0
  -18.6758   19.1932  -38.0736 N   0  0  0  0  0  0  0  0  0  0  0  0
  -16.9729   17.8864  -38.9782 N   0  0  0  0  0  0  0  0  0  0  0  0
  -15.9193   18.8398  -38.7321 C   0  0  0  0  0  0  0  0  0  0  0  0
  -14.5892   18.2264  -38.9262 C   0  0  0  0  0  0  0  0  0  0  0  0
  -13.9330   17.6129  -37.8659 C   0  0  0  0  0  0  0  0  0  0  0  0
  -12.6921   17.0445  -38.0611 C   0  0  0  0  0  0  0  0  0  0  0  0
  -12.0830   17.0741  -39.3045 C   0  0  0  0  0  0  0  0  0  0  0  0
  -12.7192   17.6796  -40.3723 C   0  0  0  0  0  0  0  0  0  0  0  0
  -12.0869   17.7231  -41.7107 C   0  0  0  0  0  0  0  0  0  0  0  0
  -11.2674   18.9095  -41.8911 N   0  0  0  0  0  0  0  0  0  0  0  0
  -13.9567   18.2426  -40.1635 C   0  0  0  0  0  0  0  0  0  0  0  0
  -15.5129   18.0016  -39.3820 Cl  0  0  0  0  0  0  0  0  0  0  0  0
  -15.5111   18.0015  -39.3826 Cl  0  0  0  0  0  0  0  0  0  0  0  0
  1  2  1  0
  2  3  2  0
  2  4  1  0
  4  5  1  0
  5  6  1  0
  6  7  2  0
  7  8  1  0
  8  9  2  0
  9 10  1  0
 10 11  1  0
 11 12  1  0
 10 13  2  0
 13  6  1  0
M  END
$$$$
