
     RDKit          3D

 53 52  0  0  0  0  0  0  0  0999 V2000
  -23.5154   47.0514  -10.9330 O   0  0  0  0  0  0  0  0  0  0  0  0
  -23.9190   46.2510  -11.8389 C   0  0  0  0  0  0  0  0  0  0  0  0
  -23.1324   45.9744  -12.9381 C   0  0  0  0  0  0  0  0  0  0  0  0
  -23.6325   45.1042  -13.8708 C   0  0  0  0  0  0  0  0  0  0  0  0
  -24.8347   44.5280  -13.7489 N   0  0  0  0  0  0  0  0  0  0  0  0
  -25.2677   43.6170  -14.8023 C   0  0  2  0  0  0  0  0  0  0  0  0
  -24.1587   42.8599  -15.1663 O   0  0  0  0  0  0  0  0  0  0  0  0
  -24.2968   42.5892  -16.5255 C   0  0  2  0  0  0  0  0  0  0  0  0
  -22.9256   42.2255  -17.0451 C   0  0  0  0  0  0  0  0  0  0  0  0
  -22.9867   41.9397  -18.4083 O   0  0  0  0  0  0  0  0  0  0  0  0
  -21.4884   41.5316  -19.0283 P   0  0  0  0  0  5  0  0  0  0  0  0
  -20.9275   42.7191  -19.8061 O   0  0  0  0  0  0  0  0  0  0  0  0
  -20.3642   41.1385  -17.8340 O   0  0  0  0  0  1  0  0  0  0  0  0
  -21.5721   40.2363  -20.1112 O   0  0  0  0  0  0  0  0  0  0  0  0
  -22.7908   39.1555  -19.7008 P   0  0  0  0  0  5  0  0  0  0  0  0
  -23.3058   39.4004  -18.2932 O   0  0  0  0  0  0  0  0  0  0  0  0
  -24.0868   39.3647  -20.7612 O   0  0  0  0  0  1  0  0  0  0  0  0
  -22.1565   37.5997  -19.7613 O   0  0  0  0  0  0  0  0  0  0  0  0
  -21.6686   37.2731  -21.3473 P   0  0  0  0  0  5  0  0  0  0  0  0
  -22.7591   37.6650  -22.3402 O   0  0  0  0  0  0  0  0  0  0  0  0
  -20.2985   38.2029  -21.7618 O   0  0  0  0  0  1  0  0  0  0  0  0
  -21.3808   35.6373  -21.5347 O   0  0  0  0  0  0  0  0  0  0  0  0
  -19.7949   35.2948  -21.9647 P   0  0  0  0  0  5  0  0  0  0  0  0
  -18.8311   36.3437  -21.4644 O   0  0  0  0  0  0  0  0  0  0  0  0
  -19.3638   33.8286  -21.2057 O   0  0  0  0  0  1  0  0  0  0  0  0
  -19.6162   35.0527  -23.6298 O   0  0  0  0  0  0  0  0  0  0  0  0
  -18.7331   36.0038  -24.1772 C   0  0  0  0  0  0  0  0  0  0  0  0
  -18.6315   35.7164  -25.6597 C   0  0  1  0  0  0  0  0  0  0  0  0
  -17.7681   36.6262  -26.2667 O   0  0  0  0  0  0  0  0  0  0  0  0
  -17.4100   36.0899  -27.4868 C   0  0  1  0  0  0  0  0  0  0  0  0
  -16.0455   36.4265  -27.8467 N   0  0  0  0  0  0  0  0  0  0  0  0
  -15.1176   36.7886  -26.9365 C   0  0  0  0  0  0  0  0  0  0  0  0
  -13.8265   37.0989  -27.3480 C   0  0  0  0  0  0  0  0  0  0  0  0
  -13.4723   37.0452  -28.6662 C   0  0  0  0  0  0  0  0  0  0  0  0
  -12.2903   37.3336  -29.0056 O   0  0  0  0  0  0  0  0  0  0  0  0
  -14.4205   36.6803  -29.5524 N   0  0  0  0  0  0  0  0  0  0  0  0
  -15.6552   36.3869  -29.1298 C   0  0  0  0  0  0  0  0  0  0  0  0
  -16.5301   36.0461  -29.9828 O   0  0  0  0  0  0  0  0  0  0  0  0
  -17.4959   34.5938  -27.3764 C   0  0  2  0  0  0  0  0  0  0  0  0
  -18.5584   34.1340  -28.1643 O   0  0  0  0  0  0  0  0  0  0  0  0
  -17.9172   34.4036  -25.9276 C   0  0  2  0  0  0  0  0  0  0  0  0
  -18.7182   33.3047  -25.7408 O   0  0  0  0  0  0  0  0  0  0  0  0
  -24.7776   43.8789  -17.1162 C   0  0  1  0  0  0  0  0  0  0  0  0
  -25.6231   43.6671  -18.2081 O   0  0  0  0  0  0  0  0  0  0  0  0
  -25.6169   44.4630  -16.0061 C   0  0  1  0  0  0  0  0  0  0  0  0
  -26.9752   44.3686  -16.2760 O   0  0  0  0  0  0  0  0  0  0  0  0
  -25.5932   44.8003  -12.6802 C   0  0  0  0  0  0  0  0  0  0  0  0
  -26.7150   44.2363  -12.6074 O   0  0  0  0  0  0  0  0  0  0  0  0
  -25.1193   45.6482  -11.7600 N   0  0  0  0  0  0  0  0  0  0  0  0
  -20.6641   39.6446  -20.7908 Na  0  0  0  0  0 15  0  0  0  0  0  0
  -20.6641   39.6446  -20.7908 Na  0  0  0  0  0 15  0  0  0  0  0  0
  -20.6641   39.6446  -20.7908 Na  0  0  0  0  0 15  0  0  0  0  0  0
  -20.6641   39.6446  -20.7908 Na  0  0  0  0  0 15  0  0  0  0  0  0
  1  2  2  0
  2  3  1  0
  3  4  2  0
  4  5  1  0
  6  5  1  1
  6  7  1  0
  7  8  1  0
  8  9  1  6
  9 10  1  0
 10 11  1  0
 11 12  2  0
 11 13  1  0
 11 14  1  0
 14 15  1  0
 15 16  2  0
 15 17  1  0
 15 18  1  0
 18 19  1  0
 19 20  2  0
 19 21  1  0
 19 22  1  0
 22 23  1  0
 23 24  2  0
 23 25  1  0
 23 26  1  0
 26 27  1  0
 28 27  1  1
 28 29  1  0
 29 30  1  0
 30 31  1  1
 31 32  1  0
 32 33  2  0
 33 34  1  0
 34 35  2  0
 34 36  1  0
 36 37  1  0
 37 38  2  0
 30 39  1  0
 39 40  1  6
 39 41  1  0
 41 42  1  6
  8 43  1  0
 43 44  1  6
 43 45  1  0
 45 46  1  6
  5 47  1  0
 47 48  2  0
 47 49  1  0
 49  2  1  0
 45  6  1  0
 41 28  1  0
 37 31  1  0
M  CHG  8  13  -1  17  -1  21  -1  25  -1  50   1  51   1  52   1  53   1
M  END
$$$$
