
     RDKit          3D

 22 24  0  0  0  0  0  0  0  0999 V2000
  -20.2332   44.7121  -22.6697 C   0  0  0  0  0  0  0  0  0  0  0  0
  -20.7542   43.5799  -23.5272 C   0  0  0  0  0  0  0  0  0  0  0  0
  -19.9799   42.4100  -23.3550 O   0  0  0  0  0  0  0  0  0  0  0  0
  -20.4911   41.3978  -22.5609 C   0  0  0  0  0  0  0  0  0  0  0  0
  -21.5503   41.6347  -21.8697 O   0  0  0  0  0  0  0  0  0  0  0  0
  -19.9162   40.0699  -22.4466 C   0  0  0  0  0  0  0  0  0  0  0  0
  -18.5759   39.8151  -22.5252 N   0  0  0  0  0  0  0  0  0  0  0  0
  -18.3434   38.5007  -22.3803 C   0  0  0  0  0  0  0  0  0  0  0  0
  -19.5410   37.9433  -22.2115 N   0  0  0  0  0  0  0  0  0  0  0  0
  -20.5337   38.8646  -22.2456 C   0  0  0  0  0  0  0  0  0  0  0  0
  -21.9684   38.6672  -22.1133 C   0  0  0  0  0  0  0  0  0  0  0  0
  -22.5165   37.5730  -22.8954 N   0  0  0  0  0  0  0  0  0  0  0  0
  -23.6391   37.8664  -23.7911 C   0  0  0  0  0  0  0  0  0  0  0  0
  -22.0562   36.2276  -22.8678 C   0  0  0  0  0  0  0  0  0  0  0  0
  -22.7921   35.3571  -23.3519 O   0  0  0  0  0  0  0  0  0  0  0  0
  -20.7902   35.7600  -22.3207 C   0  0  0  0  0  0  0  0  0  0  0  0
  -20.7417   34.4067  -22.0790 C   0  0  0  0  0  0  0  0  0  0  0  0
  -19.6071   33.8349  -21.5459 C   0  0  0  0  0  0  0  0  0  0  0  0
  -19.5894   32.4920  -21.3180 F   0  0  0  0  0  0  0  0  0  0  0  0
  -18.4976   34.5930  -21.2415 C   0  0  0  0  0  0  0  0  0  0  0  0
  -18.5484   35.9475  -21.4845 C   0  0  0  0  0  0  0  0  0  0  0  0
  -19.6745   36.5320  -22.0173 C   0  0  0  0  0  0  0  0  0  0  0  0
  1  2  1  0
  2  3  1  0
  3  4  1  0
  4  5  2  0
  4  6  1  0
  6  7  1  0
  7  8  2  0
  8  9  1  0
  9 10  1  0
 10 11  1  0
 11 12  1  0
 12 13  1  0
 12 14  1  0
 14 15  2  0
 14 16  1  0
 16 17  2  0
 17 18  1  0
 18 19  1  0
 18 20  2  0
 20 21  1  0
 21 22  2  0
 10  6  2  0
 22 16  1  0
 22  9  1  0
M  END
$$$$
