
     RDKit          3D

 29 31  0  0  0  0  0  0  0  0999 V2000
  -11.2855   19.0954  -40.9422 C   0  0  0  0  0  0  0  0  0  0  0  0
  -11.6991   17.7765  -40.3255 C   0  0  0  0  0  0  0  0  0  0  0  0
  -11.4753   16.7168  -41.3616 C   0  0  0  0  0  0  0  0  0  0  0  0
  -10.7842   17.5504  -39.1304 C   0  0  0  0  0  0  0  0  0  0  0  0
  -13.1193   17.9003  -39.9182 C   0  0  0  0  0  0  0  0  0  0  0  0
  -13.5300   17.6046  -38.6325 C   0  0  0  0  0  0  0  0  0  0  0  0
  -14.8882   17.7359  -38.2888 C   0  0  0  0  0  0  0  0  0  0  0  0
  -15.3280   17.4149  -36.9418 C   0  0  0  0  0  0  0  0  0  0  0  0
  -14.1880   16.7772  -36.1421 C   0  0  0  0  0  0  0  0  0  0  0  0
  -15.6242   18.7274  -36.1854 C   0  0  0  0  0  0  0  0  0  0  0  0
  -16.5253   16.5595  -36.7841 C   0  0  0  0  0  0  0  0  0  0  0  0
  -15.7672   18.1552  -39.2426 C   0  0  0  0  0  0  0  0  0  0  0  0
  -17.1353   18.3124  -38.9293 N   0  0  0  0  0  0  0  0  0  0  0  0
  -17.8817   19.3764  -39.4744 C   0  0  0  0  0  0  0  0  0  0  0  0
  -17.2126   20.1776  -40.2214 O   0  0  0  0  0  0  0  0  0  0  0  0
  -19.2898   19.6467  -39.2799 C   0  0  0  0  0  0  0  0  0  0  0  0
  -19.7242   20.9557  -39.0641 C   0  0  0  0  0  0  0  0  0  0  0  0
  -21.0148   21.2574  -38.8791 N   0  0  0  0  0  0  0  0  0  0  0  0
  -21.9752   20.3189  -38.8893 C   0  0  0  0  0  0  0  0  0  0  0  0
  -23.3229   20.6414  -38.6951 C   0  0  0  0  0  0  0  0  0  0  0  0
  -24.2828   19.6611  -38.7107 C   0  0  0  0  0  0  0  0  0  0  0  0
  -23.9594   18.3438  -38.9149 C   0  0  0  0  0  0  0  0  0  0  0  0
  -22.6106   18.0301  -39.1080 C   0  0  0  0  0  0  0  0  0  0  0  0
  -21.6386   19.0072  -39.0943 C   0  0  0  0  0  0  0  0  0  0  0  0
  -20.2813   18.6988  -39.2877 C   0  0  0  0  0  0  0  0  0  0  0  0
  -20.0077   17.4905  -39.4724 O   0  0  0  0  0  0  0  0  0  0  0  0
  -15.3265   18.4490  -40.5405 C   0  0  0  0  0  0  0  0  0  0  0  0
  -13.9998   18.3239  -40.8883 C   0  0  0  0  0  0  0  0  0  0  0  0
  -13.5732   18.6224  -42.1945 O   0  0  0  0  0  0  0  0  0  0  0  0
  1  2  1  0
  2  3  1  0
  2  4  1  0
  2  5  1  0
  5  6  2  0
  6  7  1  0
  7  8  1  0
  8  9  1  0
  8 10  1  0
  8 11  1  0
  7 12  2  0
 12 13  1  0
 13 14  1  0
 14 15  2  0
 14 16  1  0
 16 17  2  0
 17 18  1  0
 18 19  1  0
 19 20  2  0
 20 21  1  0
 21 22  2  0
 22 23  1  0
 23 24  2  0
 24 25  1  0
 25 26  2  0
 12 27  1  0
 27 28  2  0
 28 29  1  0
 28  5  1  0
 25 16  1  0
 24 19  1  0
M  END
$$$$
