
     RDKit          3D

 31 35  0  0  0  0  0  0  0  0999 V2000
  -29.7308   12.9419  -24.1053 C   0  0  0  0  0  0  0  0  0  0  0  0
  -30.0444   12.7510  -22.6666 C   0  0  0  0  0  0  0  0  0  0  0  0
  -30.8111   11.7108  -22.1355 C   0  0  0  0  0  0  0  0  0  0  0  0
  -30.9053   11.8343  -20.7604 C   0  0  0  0  0  0  0  0  0  0  0  0
  -31.5136   11.1233  -19.7438 C   0  0  0  0  0  0  0  0  0  0  0  0
  -32.2694    9.9353  -20.0686 C   0  0  0  0  0  0  0  0  0  0  0  0
  -31.7126    8.6517  -20.2539 N   0  0  0  0  0  0  0  0  0  0  0  0
  -33.5159   10.0229  -20.2017 O   0  0  0  0  0  0  0  0  0  0  0  0
  -31.4132   11.5230  -18.4407 C   0  0  0  0  0  0  0  0  0  0  0  0
  -30.6891   12.6580  -18.1468 C   0  0  0  0  0  0  0  0  0  0  0  0
  -30.0796   13.3737  -19.1482 C   0  0  0  0  0  0  0  0  0  0  0  0
  -30.1652   12.9908  -20.4789 C   0  0  0  0  0  0  0  0  0  0  0  0
  -29.6718   13.5060  -21.6244 N   0  0  0  0  0  0  0  0  0  0  0  0
  -28.8683   14.6845  -21.7197 C   0  0  0  0  0  0  0  0  0  0  0  0
  -29.1520   15.7991  -21.0286 N   0  0  0  0  0  0  0  0  0  0  0  0
  -28.4090   16.9388  -21.0958 C   0  0  0  0  0  0  0  0  0  0  0  0
  -27.3074   16.9488  -21.9174 C   0  0  0  0  0  0  0  0  0  0  0  0
  -26.9847   15.8082  -22.6477 C   0  0  0  0  0  0  0  0  0  0  0  0
  -25.8410   15.8193  -23.4745 N   0  0  0  0  0  0  0  0  0  0  0  0
  -25.6157   14.6117  -24.2874 C   0  0  0  0  0  0  0  0  0  0  0  0
  -24.7940   13.6317  -23.5010 C   0  0  0  0  0  0  0  0  0  0  0  0
  -23.5468   13.9569  -23.0156 C   0  0  0  0  0  0  0  0  0  0  0  0
  -22.8004   13.0486  -22.2943 C   0  0  0  0  0  0  0  0  0  0  0  0
  -23.2810   11.7792  -22.0345 C   0  0  0  0  0  0  0  0  0  0  0  0
  -24.5294   11.4442  -22.5167 C   0  0  0  0  0  0  0  0  0  0  0  0
  -25.2693   12.3638  -23.2393 C   0  0  0  0  0  0  0  0  0  0  0  0
  -27.7823   14.7455  -22.5067 N   0  0  0  0  0  0  0  0  0  0  0  0
  -26.4720   18.1393  -22.0469 C   0  0  0  0  0  0  0  0  0  0  0  0
  -27.1645   19.2575  -21.6174 O   0  0  0  0  0  0  0  0  0  0  0  0
  -27.6744   19.1390  -20.3575 C   0  0  0  0  0  0  0  0  0  0  0  0
  -28.7981   18.1267  -20.2777 C   0  0  0  0  0  0  0  0  0  0  0  0
  1  2  1  0
  2  3  2  0
  3  4  1  0
  4  5  2  0
  5  6  1  0
  6  7  1  0
  6  8  2  0
  5  9  1  0
  9 10  2  0
 10 11  1  0
 11 12  2  0
 12 13  1  0
 13 14  1  0
 14 15  2  0
 15 16  1  0
 16 17  2  0
 17 18  1  0
 18 19  1  0
 19 20  1  0
 20 21  1  0
 21 22  2  0
 22 23  1  0
 23 24  2  0
 24 25  1  0
 25 26  2  0
 18 27  2  0
 17 28  1  0
 28 29  1  0
 29 30  1  0
 30 31  1  0
 13  2  1  0
 27 14  1  0
 12  4  1  0
 31 16  1  0
 26 21  1  0
M  END
$$$$
