
     RDKit          3D

 24 26  0  0  0  0  0  0  0  0999 V2000
  -22.3774   40.8351  -18.1214 N   0  0  0  0  0  0  0  0  0  0  0  0
  -21.0458   39.7381  -18.1794 S   0  0  0  0  0  6  0  0  0  0  0  0
  -20.2959   39.7301  -16.8958 O   0  0  0  0  0  0  0  0  0  0  0  0
  -21.6100   38.3802  -18.5141 O   0  0  0  0  0  0  0  0  0  0  0  0
  -19.9525   40.1652  -19.4769 C   0  0  0  0  0  0  0  0  0  0  0  0
  -19.3405   41.3997  -19.5461 C   0  0  0  0  0  0  0  0  0  0  0  0
  -18.4744   41.7685  -20.5538 C   0  0  0  0  0  0  0  0  0  0  0  0
  -18.1845   40.8798  -21.5588 C   0  0  0  0  0  0  0  0  0  0  0  0
  -17.0831   41.2896  -22.8657 S   0  0  0  0  0  6  0  0  0  0  0  0
  -16.7194   40.0955  -23.6613 O   0  0  0  0  0  0  0  0  0  0  0  0
  -17.8666   42.2168  -23.7858 O   0  0  0  0  0  0  0  0  0  0  0  0
  -15.7117   42.0887  -22.2188 N   0  0  0  0  0  0  0  0  0  0  0  0
  -15.7169   43.3410  -21.5672 C   0  0  0  0  0  0  0  0  0  0  0  0
  -16.7195   44.2866  -21.7106 C   0  0  0  0  0  0  0  0  0  0  0  0
  -16.6852   45.5078  -21.0619 C   0  0  0  0  0  0  0  0  0  0  0  0
  -15.6270   45.8225  -20.2367 C   0  0  0  0  0  0  0  0  0  0  0  0
  -14.6014   44.9081  -20.0632 C   0  0  0  0  0  0  0  0  0  0  0  0
  -13.4376   44.9698  -19.3018 C   0  0  0  0  0  0  0  0  0  0  0  0
  -12.8956   46.2862  -18.2859 Cl  0  0  0  0  0  0  0  0  0  0  0  0
  -12.8015   43.7664  -19.5208 C   0  0  0  0  0  0  0  0  0  0  0  0
  -13.5689   43.0344  -20.3779 N   0  0  0  0  0  0  0  0  0  0  0  0
  -14.6716   43.7211  -20.7167 C   0  0  0  0  0  0  0  0  0  0  0  0
  -18.7882   39.6325  -21.5101 C   0  0  0  0  0  0  0  0  0  0  0  0
  -19.6490   39.2868  -20.4951 C   0  0  0  0  0  0  0  0  0  0  0  0
  1  2  1  0
  2  3  2  0
  2  4  2  0
  2  5  1  0
  5  6  2  0
  6  7  1  0
  7  8  2  0
  8  9  1  0
  9 10  2  0
  9 11  2  0
  9 12  1  0
 12 13  1  0
 13 14  2  0
 14 15  1  0
 15 16  2  0
 16 17  1  0
 17 18  1  0
 18 19  1  0
 18 20  2  0
 20 21  1  0
 21 22  1  0
  8 23  1  0
 23 24  2  0
 24  5  1  0
 22 13  1  0
 22 17  2  0
M  END
$$$$
