
     RDKit          3D

 23 25  0  0  0  0  0  0  0  0999 V2000
  -21.0695   32.3890  -19.6454 C   0  0  0  0  0  0  0  0  0  0  0  0
  -21.1733   33.7475  -20.2828 C   0  0  0  0  0  0  0  0  0  0  0  0
  -22.0948   34.6555  -19.9363 C   0  0  0  0  0  0  0  0  0  0  0  0
  -21.7542   36.0772  -21.0342 S   0  0  0  0  0  0  0  0  0  0  0  0
  -20.3312   35.1412  -21.8250 C   0  0  0  0  0  0  0  0  0  0  0  0
  -19.3364   35.8382  -23.1544 S   0  0  0  0  0  0  0  0  0  0  0  0
  -19.7155   37.5798  -23.3832 C   0  0  0  0  0  0  0  0  0  0  0  0
  -19.1807   38.3775  -22.2915 C   0  0  0  0  0  0  0  0  0  0  0  0
  -18.4334   37.7220  -21.4625 O   0  0  0  0  0  0  0  0  0  0  0  0
  -19.3772   39.7945  -22.0264 C   0  0  0  0  0  0  0  0  0  0  0  0
  -20.0235   40.7559  -22.7675 C   0  0  0  0  0  0  0  0  0  0  0  0
  -19.9038   41.9847  -22.1068 C   0  0  0  0  0  0  0  0  0  0  0  0
  -20.4612   43.2846  -22.5788 C   0  0  0  0  0  0  0  0  0  0  0  0
  -19.2015   41.7951  -20.9852 N   0  0  0  0  0  0  0  0  0  0  0  0
  -18.8463   42.8140  -19.9809 C   0  0  0  0  0  0  0  0  0  0  0  0
  -17.5780   43.3963  -20.1345 C   0  0  0  0  0  0  0  0  0  0  0  0
  -17.1434   44.6200  -20.6728 C   0  0  0  0  0  0  0  0  0  0  0  0
  -15.8734   44.9484  -20.7098 C   0  0  0  0  0  0  0  0  0  0  0  0
  -14.9245   44.0642  -20.2036 C   0  0  0  0  0  0  0  0  0  0  0  0
  -15.9492   42.6959  -19.6513 S   0  0  0  0  0  0  0  0  0  0  0  0
  -18.8815   40.4920  -20.9266 C   0  0  0  0  0  0  0  0  0  0  0  0
  -18.0994   39.8595  -19.8303 C   0  0  0  0  0  0  0  0  0  0  0  0
  -20.3646   34.1426  -21.2426 N   0  0  0  0  0  0  0  0  0  0  0  0
  1  2  1  0
  2  3  2  0
  3  4  1  0
  4  5  1  0
  5  6  1  0
  6  7  1  0
  7  8  1  0
  8  9  2  0
  8 10  1  0
 10 11  1  0
 11 12  2  0
 12 13  1  0
 12 14  1  0
 14 15  1  0
 15 16  1  0
 16 17  2  0
 17 18  1  0
 18 19  2  0
 19 20  1  0
 14 21  1  0
 21 22  1  0
  5 23  2  0
 23  2  1  0
 21 10  2  0
 20 16  1  0
M  END
$$$$
