
     RDKit          3D

 35 39  0  0  0  0  0  0  0  0999 V2000
  -19.9870   38.9721  -23.4736 C   0  0  0  0  0  0  0  0  0  0  0  0
  -19.5357   40.0105  -22.6256 N   0  0  0  0  0  0  0  0  0  0  0  0
  -18.5599   40.9060  -23.1061 C   0  0  0  0  0  0  0  0  0  0  0  0
  -18.9588   41.8457  -24.1858 C   0  0  2  0  0  0  0  0  0  0  0  0
  -19.3192   43.1925  -23.6492 C   0  0  0  0  0  0  0  0  0  0  0  0
  -19.7436   44.0134  -24.7117 O   0  0  0  0  0  0  0  0  0  0  0  0
  -19.3779   43.4915  -25.9398 C   0  0  0  0  0  0  0  0  0  0  0  0
  -19.8883   42.1068  -26.1978 C   0  0  0  0  0  0  0  0  0  0  0  0
  -19.9394   41.3312  -25.0295 O   0  0  0  0  0  0  0  0  0  0  0  0
  -19.1247   39.4137  -21.0841 S   0  0  0  0  0  6  0  0  0  0  0  0
  -17.7312   38.8246  -21.0640 O   0  0  0  0  0  0  0  0  0  0  0  0
  -20.0838   38.2297  -20.8398 O   0  0  0  0  0  0  0  0  0  0  0  0
  -19.3063   40.5366  -19.8184 N   0  0  0  0  0  0  0  0  0  0  0  0
  -18.5254   41.7023  -19.6761 C   0  0  0  0  0  0  0  0  0  0  0  0
  -18.8711   42.9509  -20.1367 C   0  0  0  0  0  0  0  0  0  0  0  0
  -18.0475   44.0661  -19.9907 C   0  0  0  0  0  0  0  0  0  0  0  0
  -16.8403   43.9355  -19.3671 C   0  0  0  0  0  0  0  0  0  0  0  0
  -16.1238   45.1264  -19.2913 C   0  0  0  0  0  0  0  0  0  0  0  0
  -14.8000   45.3006  -18.9033 C   0  0  0  0  0  0  0  0  0  0  0  0
  -13.9699   44.4364  -18.2013 C   0  0  0  0  0  0  0  0  0  0  0  0
  -12.8220   44.9920  -17.7765 N   0  0  0  0  0  0  0  0  0  0  0  0
  -11.8872   44.3129  -17.0776 C   0  0  0  0  0  0  0  0  0  0  0  0
  -12.0455   42.9817  -16.7449 C   0  0  0  0  0  0  0  0  0  0  0  0
  -11.0254   42.2622  -15.9894 C   0  0  0  0  0  0  0  0  0  0  0  0
  -10.8426   40.8814  -15.9685 C   0  0  0  0  0  0  0  0  0  0  0  0
   -9.8025   40.6283  -15.1544 N   0  0  0  0  0  0  0  0  0  0  0  0
   -9.3030   41.7432  -14.6506 N   0  0  0  0  0  0  0  0  0  0  0  0
   -8.1654   41.8525  -13.7252 C   0  0  0  0  0  0  0  0  0  0  0  0
  -10.0417   42.7492  -15.1532 C   0  0  0  0  0  0  0  0  0  0  0  0
  -13.2160   42.3838  -17.1682 C   0  0  0  0  0  0  0  0  0  0  0  0
  -14.1727   43.1077  -17.8924 C   0  0  0  0  0  0  0  0  0  0  0  0
  -15.2680   42.3556  -18.2285 C   0  0  0  0  0  0  0  0  0  0  0  0
  -15.2200   41.1518  -17.8958 O   0  0  0  0  0  0  0  0  0  0  0  0
  -16.4532   42.7008  -18.8904 C   0  0  0  0  0  0  0  0  0  0  0  0
  -17.2754   41.6142  -19.0419 C   0  0  0  0  0  0  0  0  0  0  0  0
  1  2  1  0
  2  3  1  0
  4  3  1  1
  4  5  1  0
  5  6  1  0
  6  7  1  0
  7  8  1  0
  8  9  1  0
  2 10  1  0
 10 11  2  0
 10 12  2  0
 10 13  1  0
 13 14  1  0
 14 15  2  0
 15 16  1  0
 16 17  2  0
 17 18  1  0
 18 19  2  0
 19 20  1  0
 20 21  2  0
 21 22  1  0
 22 23  2  0
 23 24  1  0
 24 25  1  0
 25 26  2  0
 26 27  1  0
 27 28  1  0
 27 29  1  0
 23 30  1  0
 30 31  2  0
 31 32  1  0
 32 33  2  0
 32 34  1  0
 34 35  2  0
  9  4  1  0
 35 14  1  0
 34 17  1  0
 31 20  1  0
 29 24  2  0
M  END
$$$$
