
     RDKit          3D

 31 34  0  0  0  0  0  0  0  0999 V2000
  -15.8352   50.3128  -18.9156 C   0  0  0  0  0  0  0  0  0  0  0  0
  -15.0271   49.1595  -18.8608 O   0  0  0  0  0  0  0  0  0  0  0  0
  -15.5744   47.9376  -19.2382 C   0  0  0  0  0  0  0  0  0  0  0  0
  -16.8901   47.7872  -19.6220 C   0  0  0  0  0  0  0  0  0  0  0  0
  -17.4058   46.5624  -19.9913 C   0  0  0  0  0  0  0  0  0  0  0  0
  -16.6178   45.4160  -19.9938 C   0  0  0  0  0  0  0  0  0  0  0  0
  -17.1870   44.1574  -20.3841 C   0  0  0  0  0  0  0  0  0  0  0  0
  -17.8061   44.0038  -21.6074 C   0  0  0  0  0  0  0  0  0  0  0  0
  -18.3341   42.8707  -21.9960 O   0  0  0  0  0  0  0  0  0  0  0  0
  -18.3193   41.7768  -21.2494 C   0  0  0  0  0  0  0  0  0  0  0  0
  -18.8658   40.5968  -21.6477 C   0  0  0  0  0  0  0  0  0  0  0  0
  -18.8686   39.4187  -20.8847 C   0  0  0  0  0  0  0  0  0  0  0  0
  -19.4127   38.3561  -21.3544 O   0  0  0  0  0  0  0  0  0  0  0  0
  -19.9723   37.2962  -21.8441 C   0  0  2  0  0  0  0  0  0  0  0  0
  -19.1741   36.5276  -22.7453 O   0  0  0  0  0  0  0  0  0  0  0  0
  -19.6810   35.2358  -22.7051 C   0  0  2  0  0  0  0  0  0  0  0  0
  -18.7219   34.2321  -23.3087 C   0  0  0  0  0  0  0  0  0  0  0  0
  -18.3080   34.7148  -24.5406 O   0  0  0  0  0  0  0  0  0  0  0  0
  -21.0018   35.2355  -23.4438 C   0  0  1  0  0  0  0  0  0  0  0  0
  -21.5160   33.9665  -23.6176 O   0  0  0  0  0  0  0  0  0  0  0  0
  -21.9560   36.0884  -22.6065 C   0  0  2  0  0  0  0  0  0  0  0  0
  -23.2286   36.1106  -23.1360 O   0  0  0  0  0  0  0  0  0  0  0  0
  -21.3491   37.4688  -22.4923 C   0  0  1  0  0  0  0  0  0  0  0  0
  -22.1068   38.2561  -21.6369 O   0  0  0  0  0  0  0  0  0  0  0  0
  -18.2494   39.5157  -19.6240 C   0  0  0  0  0  0  0  0  0  0  0  0
  -17.6973   40.7050  -19.2199 C   0  0  0  0  0  0  0  0  0  0  0  0
  -17.7220   41.8326  -20.0086 C   0  0  0  0  0  0  0  0  0  0  0  0
  -17.1641   43.0202  -19.5919 C   0  0  0  0  0  0  0  0  0  0  0  0
  -16.6276   43.0597  -18.4705 O   0  0  0  0  0  0  0  0  0  0  0  0
  -15.2987   45.5772  -19.6071 C   0  0  0  0  0  0  0  0  0  0  0  0
  -14.7851   46.8026  -19.2382 C   0  0  0  0  0  0  0  0  0  0  0  0
  1  2  1  0
  2  3  1  0
  3  4  2  0
  4  5  1  0
  5  6  2  0
  6  7  1  0
  7  8  2  0
  8  9  1  0
  9 10  1  0
 10 11  2  0
 11 12  1  0
 12 13  1  0
 14 13  1  6
 14 15  1  0
 15 16  1  0
 16 17  1  6
 17 18  1  0
 16 19  1  0
 19 20  1  1
 19 21  1  0
 21 22  1  6
 21 23  1  0
 23 24  1  1
 12 25  2  0
 25 26  1  0
 26 27  2  0
 27 28  1  0
 28 29  2  0
  6 30  1  0
 30 31  2  0
 31  3  1  0
 28  7  1  0
 27 10  1  0
 23 14  1  0
M  END
$$$$
