
     RDKit          3D

 35 38  0  0  0  0  0  0  0  0999 V2000
  -13.0515   12.5816  -26.8993 C   0  0  0  0  0  0  0  0  0  0  0  0
  -13.7929   12.7663  -28.1743 C   0  0  0  0  0  0  0  0  0  0  0  0
  -15.0578   13.3535  -28.2193 C   0  0  0  0  0  0  0  0  0  0  0  0
  -15.7360   13.5093  -29.3989 C   0  0  0  0  0  0  0  0  0  0  0  0
  -17.0416   14.1212  -29.4309 C   0  0  0  0  0  0  0  0  0  0  0  0
  -17.4490   14.6428  -28.3389 O   0  0  0  0  0  0  0  0  0  0  0  0
  -17.8865   14.1814  -30.5698 N   0  0  0  0  0  0  0  0  0  0  0  0
  -19.0422   15.0464  -30.6298 C   0  0  0  0  0  0  0  0  0  0  0  0
  -20.0942   15.0163  -29.8019 N   0  0  0  0  0  0  0  0  0  0  0  0
  -20.9842   15.9648  -30.1408 C   0  0  0  0  0  0  0  0  0  0  0  0
  -22.2034   16.3440  -29.6253 C   0  0  0  0  0  0  0  0  0  0  0  0
  -22.8965   17.3671  -30.1922 C   0  0  0  0  0  0  0  0  0  0  0  0
  -22.3839   18.0476  -31.3044 C   0  0  0  0  0  0  0  0  0  0  0  0
  -21.1647   17.6776  -31.8302 C   0  0  0  0  0  0  0  0  0  0  0  0
  -20.5908   18.5575  -33.2180 Cl  0  0  0  0  0  0  0  0  0  0  0  0
  -20.4646   16.6405  -31.2529 C   0  0  0  0  0  0  0  0  0  0  0  0
  -19.2747   16.0343  -31.5050 N   0  0  0  0  0  0  0  0  0  0  0  0
  -18.4036   16.4513  -32.5773 C   0  0  2  0  0  0  0  0  0  0  0  0
  -17.0057   16.5547  -32.0649 C   0  0  0  0  0  0  0  0  0  0  0  0
  -16.1742   17.5600  -32.8372 C   0  0  0  0  0  0  0  0  0  0  0  0
  -16.0521   17.1304  -34.2528 C   0  0  0  0  0  0  0  0  0  0  0  0
  -17.1815   17.4953  -35.1600 C   0  0  0  0  0  0  0  0  0  0  0  0
  -18.3641   17.9601  -34.5042 N   0  0  0  0  0  0  0  0  0  0  0  0
  -19.2450   18.6428  -35.3463 C   0  0  0  0  0  0  0  0  0  0  0  0
  -20.4497   18.8052  -34.9249 O   0  0  0  0  0  0  0  0  0  0  0  0
  -18.8574   19.1529  -36.6364 C   0  0  0  0  0  0  0  0  0  0  0  0
  -19.5343   18.7546  -37.7283 C   0  0  0  0  0  0  0  0  0  0  0  0
  -20.9667   18.4340  -37.5560 C   0  0  0  0  0  0  0  0  0  0  0  0
  -21.7504   18.6960  -38.7546 N   0  0  0  0  0  0  0  0  0  0  0  0
  -21.6571   20.0983  -39.1399 C   0  0  0  0  0  0  0  0  0  0  0  0
  -23.1486   18.3316  -38.5792 C   0  0  0  0  0  0  0  0  0  0  0  0
  -18.8209   17.8316  -33.1192 C   0  0  0  0  0  0  0  0  0  0  0  0
  -15.1370   13.0672  -30.5599 C   0  0  0  0  0  0  0  0  0  0  0  0
  -13.8683   12.4785  -30.5085 C   0  0  0  0  0  0  0  0  0  0  0  0
  -13.2406   12.3471  -29.3331 N   0  0  0  0  0  0  0  0  0  0  0  0
  1  2  1  0
  2  3  2  0
  3  4  1  0
  4  5  1  0
  5  6  2  0
  5  7  1  0
  7  8  1  0
  8  9  2  0
  9 10  1  0
 10 11  2  0
 11 12  1  0
 12 13  2  0
 13 14  1  0
 14 15  1  0
 14 16  2  0
 16 17  1  0
 18 17  1  1
 18 19  1  0
 19 20  1  0
 20 21  1  0
 21 22  1  0
 22 23  1  0
 23 24  1  0
 24 25  2  0
 24 26  1  0
 26 27  2  0
 27 28  1  0
 28 29  1  0
 29 30  1  0
 29 31  1  0
 23 32  1  0
  4 33  2  0
 33 34  1  0
 34 35  2  0
 35  2  1  0
 17  8  1  0
 32 18  1  0
 16 10  1  0
M  END
$$$$
