
     RDKit          3D

 18 20  0  0  0  0  0  0  0  0999 V2000
  -22.8129   25.9782  -24.1569 N   0  0  0  0  0  0  0  0  0  0  0  0
  -22.9185   26.2591  -25.5431 C   0  0  0  0  0  0  0  0  0  0  0  0
  -22.1298   27.2470  -26.0117 N   0  0  0  0  0  0  0  0  0  0  0  0
  -22.1426   27.6040  -27.3123 C   0  0  0  0  0  0  0  0  0  0  0  0
  -21.3292   28.6184  -27.7803 O   0  0  0  0  0  0  0  0  0  0  0  0
  -20.4089   29.2029  -26.8849 C   0  0  0  0  0  0  0  0  0  0  0  0
  -20.7375   30.6152  -26.6687 C   0  0  0  0  0  0  0  0  0  0  0  0
  -20.4299   31.2337  -25.4884 C   0  0  0  0  0  0  0  0  0  0  0  0
  -20.7311   32.5578  -25.2692 C   0  0  0  0  0  0  0  0  0  0  0  0
  -21.3617   33.2708  -26.2774 C   0  0  0  0  0  0  0  0  0  0  0  0
  -21.6710   32.6464  -27.4661 C   0  0  0  0  0  0  0  0  0  0  0  0
  -21.3611   31.3211  -27.6652 C   0  0  0  0  0  0  0  0  0  0  0  0
  -23.0095   26.8973  -28.1267 C   0  0  0  0  0  0  0  0  0  0  0  0
  -23.2576   27.0042  -29.4441 N   0  0  0  0  0  0  0  0  0  0  0  0
  -24.2022   26.0835  -29.8032 C   0  0  0  0  0  0  0  0  0  0  0  0
  -24.5211   25.4147  -28.6690 N   0  0  0  0  0  0  0  0  0  0  0  0
  -23.8127   25.8887  -27.6408 C   0  0  0  0  0  0  0  0  0  0  0  0
  -23.7623   25.5741  -26.3461 N   0  0  0  0  0  0  0  0  0  0  0  0
  1  2  1  0
  2  3  2  0
  3  4  1  0
  4  5  1  0
  5  6  1  0
  6  7  1  0
  7  8  2  0
  8  9  1  0
  9 10  2  0
 10 11  1  0
 11 12  2  0
  4 13  2  0
 13 14  1  0
 14 15  2  0
 15 16  1  0
 16 17  1  0
 17 18  2  0
 18  2  1  0
 12  7  1  0
 17 13  1  0
M  END
$$$$
