
     RDKit          3D

 33 36  0  0  0  0  0  0  0  0999 V2000
  -22.7315   20.5194  -32.4833 C   0  0  0  0  0  0  0  0  0  0  0  0
  -21.7624   20.0573  -33.3818 O   0  0  0  0  0  0  0  0  0  0  0  0
  -20.7607   19.2290  -32.9475 C   0  0  0  0  0  0  0  0  0  0  0  0
  -20.6346   18.8731  -31.6090 C   0  0  0  0  0  0  0  0  0  0  0  0
  -19.6160   18.0370  -31.1989 C   0  0  0  0  0  0  0  0  0  0  0  0
  -19.5206   17.7143  -29.8988 N   0  0  0  0  0  0  0  0  0  0  0  0
  -18.5391   16.9014  -29.4529 C   0  0  0  0  0  0  0  0  0  0  0  0
  -17.6709   16.4300  -30.3355 N   0  0  0  0  0  0  0  0  0  0  0  0
  -17.6903   16.7016  -31.6626 C   0  0  0  0  0  0  0  0  0  0  0  0
  -16.7352   16.1660  -32.5451 N   0  0  0  0  0  0  0  0  0  0  0  0
  -15.6885   15.3106  -32.1259 C   0  0  0  0  0  0  0  0  0  0  0  0
  -14.3749   15.6285  -32.5147 C   0  0  0  0  0  0  0  0  0  0  0  0
  -13.2875   14.8755  -32.1484 C   0  0  0  0  0  0  0  0  0  0  0  0
  -13.4412   13.7526  -31.3672 C   0  0  0  0  0  0  0  0  0  0  0  0
  -12.3532   13.0213  -31.0153 F   0  0  0  0  0  0  0  0  0  0  0  0
  -14.7146   13.4202  -30.9737 C   0  0  0  0  0  0  0  0  0  0  0  0
  -14.9844   12.0080  -29.9811 Cl  0  0  0  0  0  0  0  0  0  0  0  0
  -15.8263   14.1888  -31.3474 C   0  0  0  0  0  0  0  0  0  0  0  0
  -18.7036   17.5390  -32.1126 C   0  0  0  0  0  0  0  0  0  0  0  0
  -18.8340   17.8944  -33.4316 C   0  0  0  0  0  0  0  0  0  0  0  0
  -19.8675   18.7421  -33.8438 C   0  0  0  0  0  0  0  0  0  0  0  0
  -19.9086   19.0508  -35.2433 N   0  0  0  0  0  0  0  0  0  0  0  0
  -19.2233   18.3039  -36.2127 C   0  0  0  0  0  0  0  0  0  0  0  0
  -19.4894   17.0762  -36.2821 O   0  0  0  0  0  0  0  0  0  0  0  0
  -18.2367   18.8426  -37.1336 C   0  0  0  0  0  0  0  0  0  0  0  0
  -18.5041   19.1471  -38.3922 C   0  0  0  0  0  0  0  0  0  0  0  0
  -17.3777   19.3363  -39.3502 C   0  0  0  0  0  0  0  0  0  0  0  0
  -17.8780   20.1516  -40.4396 N   0  0  0  0  0  0  0  0  0  0  0  0
  -19.1854   19.7523  -40.8724 C   0  0  0  0  0  0  0  0  0  0  0  0
  -19.0564   18.6085  -41.8563 C   0  0  0  0  0  0  0  0  0  0  0  0
  -18.4333   19.1376  -43.1072 C   0  0  0  0  0  0  0  0  0  0  0  0
  -17.4818   20.2716  -42.8607 C   0  0  0  0  0  0  0  0  0  0  0  0
  -16.9039   20.2639  -41.4732 C   0  0  0  0  0  0  0  0  0  0  0  0
  1  2  1  0
  2  3  1  0
  3  4  2  0
  4  5  1  0
  5  6  2  0
  6  7  1  0
  7  8  2  0
  8  9  1  0
  9 10  1  0
 10 11  1  0
 11 12  2  0
 12 13  1  0
 13 14  2  0
 14 15  1  0
 14 16  1  0
 16 17  1  0
 16 18  2  0
  9 19  2  0
 19 20  1  0
 20 21  2  0
 21 22  1  0
 22 23  1  0
 23 24  2  0
 23 25  1  0
 25 26  2  0
 26 27  1  0
 27 28  1  0
 28 29  1  0
 29 30  1  0
 30 31  1  0
 31 32  1  0
 32 33  1  0
 21  3  1  0
 33 28  1  0
 19  5  1  0
 18 11  1  0
M  END
$$$$
