
     RDKit          3D

 25 28  0  0  0  0  0  0  0  0999 V2000
  -19.2992   36.5003  -21.0898 C   0  0  0  0  0  0  0  0  0  0  0  0
  -18.8031   37.9234  -20.8781 C   0  0  0  0  0  0  0  0  0  0  0  0
  -17.6218   38.2270  -21.7657 C   0  0  0  0  0  0  0  0  0  0  0  0
  -17.0544   39.9049  -21.5296 S   0  0  0  0  0  0  0  0  0  0  0  0
  -18.3196   41.1252  -21.7821 C   0  0  0  0  0  0  0  0  0  0  0  0
  -19.6124   40.8918  -22.1746 N   0  0  0  0  0  0  0  0  0  0  0  0
  -20.2534   42.0404  -22.2364 N   0  0  0  0  0  0  0  0  0  0  0  0
  -19.4135   43.0307  -21.8926 C   0  0  0  0  0  0  0  0  0  0  0  0
  -19.4909   44.3584  -21.7657 N   0  0  0  0  0  0  0  0  0  0  0  0
  -20.7556   44.9771  -22.0613 C   0  0  0  0  0  0  0  0  0  0  0  0
  -20.9303   45.5956  -23.2719 C   0  0  0  0  0  0  0  0  0  0  0  0
  -22.1183   46.2056  -23.6155 C   0  0  0  0  0  0  0  0  0  0  0  0
  -23.1582   46.1894  -22.7100 C   0  0  0  0  0  0  0  0  0  0  0  0
  -22.9837   45.5742  -21.5062 C   0  0  0  0  0  0  0  0  0  0  0  0
  -21.7868   44.9625  -21.1661 C   0  0  0  0  0  0  0  0  0  0  0  0
  -18.4833   45.1410  -21.3845 C   0  0  0  0  0  0  0  0  0  0  0  0
  -18.6571   46.3962  -21.2948 O   0  0  0  0  0  0  0  0  0  0  0  0
  -17.2245   44.5680  -21.0819 C   0  0  0  0  0  0  0  0  0  0  0  0
  -16.0927   45.1800  -20.6721 C   0  0  0  0  0  0  0  0  0  0  0  0
  -15.9726   46.7023  -20.4617 C   0  0  0  0  0  0  0  0  0  0  0  0
  -14.9775   44.4395  -20.4207 C   0  0  0  0  0  0  0  0  0  0  0  0
  -13.6397   44.7650  -19.9827 C   0  0  0  0  0  0  0  0  0  0  0  0
  -15.5443   42.7092  -20.7871 S   0  0  0  0  0  0  0  0  0  0  0  0
  -17.1981   43.2132  -21.2283 C   0  0  0  0  0  0  0  0  0  0  0  0
  -18.2401   42.4491  -21.6190 N   0  0  0  0  0  0  0  0  0  0  0  0
  1  2  1  0
  2  3  1  0
  3  4  1  0
  4  5  1  0
  5  6  2  0
  6  7  1  0
  7  8  2  0
  8  9  1  0
  9 10  1  0
 10 11  2  0
 11 12  1  0
 12 13  2  0
 13 14  1  0
 14 15  2  0
  9 16  1  0
 16 17  2  0
 16 18  1  0
 18 19  1  0
 19 20  1  0
 19 21  2  0
 21 22  1  0
 21 23  1  0
 23 24  1  0
 24 25  1  0
 25  5  1  0
 25  8  1  0
 15 10  1  0
 24 18  2  0
M  END
$$$$
