
     RDKit          3D

 26 29  0  0  0  0  0  0  0  0999 V2000
  -29.6363   10.4726  -25.8764 C   0  0  0  0  0  0  0  0  0  0  0  0
  -28.8095   10.8496  -24.7943 O   0  0  0  0  0  0  0  0  0  0  0  0
  -28.6797   12.1846  -24.4214 C   0  0  0  0  0  0  0  0  0  0  0  0
  -29.3229   13.1667  -25.1341 C   0  0  0  0  0  0  0  0  0  0  0  0
  -29.2187   14.5157  -24.7934 C   0  0  0  0  0  0  0  0  0  0  0  0
  -28.4522   14.8661  -23.7169 C   0  0  0  0  0  0  0  0  0  0  0  0
  -27.8046   13.8785  -22.9992 C   0  0  0  0  0  0  0  0  0  0  0  0
  -27.9074   12.5398  -23.3364 C   0  0  0  0  0  0  0  0  0  0  0  0
  -27.2500   11.5604  -22.6045 O   0  0  0  0  0  0  0  0  0  0  0  0
  -27.3588   11.5392  -21.1963 C   0  0  0  0  0  0  0  0  0  0  0  0
  -27.0019   14.2651  -21.8690 N   0  0  0  0  0  0  0  0  0  0  0  0
  -26.8790   15.4987  -21.5205 C   0  0  0  0  0  0  0  0  0  0  0  0
  -26.0701   15.8614  -20.3855 N   0  0  0  0  0  0  0  0  0  0  0  0
  -24.9349   15.0948  -20.0102 C   0  0  0  0  0  0  0  0  0  0  0  0
  -24.1987   15.6147  -19.1052 O   0  0  0  0  0  0  0  0  0  0  0  0
  -24.5955   13.7993  -20.5916 C   0  0  0  0  0  0  0  0  0  0  0  0
  -25.5356   12.8386  -20.8828 C   0  0  0  0  0  0  0  0  0  0  0  0
  -25.2069   11.6034  -21.4376 C   0  0  0  0  0  0  0  0  0  0  0  0
  -23.8677   11.3845  -21.6863 C   0  0  0  0  0  0  0  0  0  0  0  0
  -22.9244   12.3184  -21.4068 N   0  0  0  0  0  0  0  0  0  0  0  0
  -23.2843   13.5014  -20.8701 C   0  0  0  0  0  0  0  0  0  0  0  0
  -27.5267   16.5795  -22.2243 N   0  0  0  0  0  0  0  0  0  0  0  0
  -27.5323   17.9904  -22.0210 C   0  0  0  0  0  0  0  0  0  0  0  0
  -28.4082   18.5288  -23.1109 C   0  0  0  0  0  0  0  0  0  0  0  0
  -28.8272   17.3662  -23.8443 N   0  0  0  0  0  0  0  0  0  0  0  0
  -28.3356   16.2852  -23.3491 C   0  0  0  0  0  0  0  0  0  0  0  0
  1  2  1  0
  2  3  1  0
  3  4  2  0
  4  5  1  0
  5  6  2  0
  6  7  1  0
  7  8  2  0
  8  9  1  0
  9 10  1  0
  7 11  1  0
 11 12  2  0
 12 13  1  0
 13 14  1  0
 14 15  2  0
 14 16  1  0
 16 17  2  0
 17 18  1  0
 18 19  2  0
 19 20  1  0
 20 21  2  0
 12 22  1  0
 22 23  1  0
 23 24  1  0
 24 25  1  0
 25 26  2  0
  8  3  1  0
 21 16  1  0
 26 22  1  0
 26  6  1  0
M  END
$$$$
