
     RDKit          3D

 20 21  0  0  0  0  0  0  0  0999 V2000
  -20.1124   39.1653  -18.0724 O   0  0  0  0  0  0  0  0  0  0  0  0
  -19.8153   40.2648  -18.6600 C   0  0  0  0  0  0  0  0  0  0  0  0
  -20.2297   41.3875  -18.0051 O   0  0  0  0  0  0  0  0  0  0  0  0
  -19.0973   40.2048  -19.9113 C   0  0  0  0  0  0  0  0  0  0  0  0
  -18.7617   38.9325  -20.4101 C   0  0  0  0  0  0  0  0  0  0  0  0
  -18.0775   38.7772  -21.5850 C   0  0  0  0  0  0  0  0  0  0  0  0
  -17.6844   39.8500  -22.3358 C   0  0  0  0  0  0  0  0  0  0  0  0
  -17.9923   41.1027  -21.8846 C   0  0  0  0  0  0  0  0  0  0  0  0
  -18.6937   41.2741  -20.6797 C   0  0  0  0  0  0  0  0  0  0  0  0
  -18.9829   42.5831  -20.2159 N   0  0  0  0  0  0  0  0  0  0  0  0
  -17.9586   43.5581  -19.9667 C   0  0  0  0  0  0  0  0  0  0  0  0
  -18.2557   44.8868  -20.0019 C   0  0  0  0  0  0  0  0  0  0  0  0
  -17.2778   45.8516  -19.7524 C   0  0  0  0  0  0  0  0  0  0  0  0
  -15.9896   45.4673  -19.4656 C   0  0  0  0  0  0  0  0  0  0  0  0
  -15.6762   44.1272  -19.4273 C   0  0  0  0  0  0  0  0  0  0  0  0
  -14.2771   43.7507  -19.1150 C   0  0  0  0  0  0  0  0  0  0  0  0
  -14.2040   42.3879  -18.9184 F   0  0  0  0  0  0  0  0  0  0  0  0
  -13.4297   44.1711  -20.1390 F   0  0  0  0  0  0  0  0  0  0  0  0
  -13.9208   44.4448  -17.9605 F   0  0  0  0  0  0  0  0  0  0  0  0
  -16.6459   43.1801  -19.6743 C   0  0  0  0  0  0  0  0  0  0  0  0
  1  2  2  0
  2  3  1  0
  2  4  1  0
  4  5  2  0
  5  6  1  0
  6  7  2  0
  7  8  1  0
  8  9  2  0
  9 10  1  0
 10 11  1  0
 11 12  2  0
 12 13  1  0
 13 14  2  0
 14 15  1  0
 15 16  1  0
 16 17  1  0
 16 18  1  0
 16 19  1  0
 15 20  2  0
  9  4  1  0
 20 11  1  0
M  END
$$$$
