
     RDKit          3D

 34 38  0  0  0  0  0  0  0  0999 V2000
  -22.5252   21.9845  -36.4752 C   0  0  0  0  0  0  0  0  0  0  0  0
  -21.7357   21.7873  -37.6584 N   0  0  0  0  0  0  0  0  0  0  0  0
  -20.4471   22.1346  -37.7955 C   0  0  0  0  0  0  0  0  0  0  0  0
  -19.3137   22.9063  -36.7107 S   0  0  0  0  0  0  0  0  0  0  0  0
  -18.5212   21.9815  -35.4912 C   0  0  0  0  0  0  0  0  0  0  0  0
  -18.2690   20.5742  -35.8357 C   0  0  0  0  0  0  0  0  0  0  0  0
  -19.3247   19.7924  -35.8791 O   0  0  0  0  0  0  0  0  0  0  0  0
  -17.0547   19.9101  -36.1376 N   0  0  0  0  0  0  0  0  0  0  0  0
  -15.6907   20.2601  -35.7949 C   0  0  0  0  0  0  0  0  0  0  0  0
  -15.2366   18.8992  -35.2292 C   0  0  0  0  0  0  0  0  0  0  0  0
  -15.6997   18.0028  -36.3920 C   0  0  0  0  0  0  0  0  0  0  0  0
  -16.9764   18.6980  -36.9088 C   0  0  1  0  0  0  0  0  0  0  0  0
  -18.1021   17.7521  -36.7626 C   0  0  0  0  0  0  0  0  0  0  0  0
  -18.7138   17.2283  -37.6912 O   0  0  0  0  0  0  0  0  0  0  0  0
  -18.5284   17.4051  -35.4308 N   0  0  0  0  0  0  0  0  0  0  0  0
  -18.8709   16.0838  -35.0751 C   0  0  0  0  0  0  0  0  0  0  0  0
  -17.8472   15.1352  -35.0372 C   0  0  0  0  0  0  0  0  0  0  0  0
  -18.1453   13.8175  -34.7053 C   0  0  0  0  0  0  0  0  0  0  0  0
  -19.4288   13.4300  -34.4135 C   0  0  0  0  0  0  0  0  0  0  0  0
  -20.4224   14.3814  -34.4569 C   0  0  0  0  0  0  0  0  0  0  0  0
  -20.1670   15.7154  -34.7853 C   0  0  0  0  0  0  0  0  0  0  0  0
  -21.2831   16.6617  -34.8019 C   0  0  0  0  0  0  0  0  0  0  0  0
  -21.9856   16.9341  -33.6487 C   0  0  0  0  0  0  0  0  0  0  0  0
  -23.0232   17.8504  -33.7443 C   0  0  0  0  0  0  0  0  0  0  0  0
  -23.3594   18.4744  -34.9210 C   0  0  0  0  0  0  0  0  0  0  0  0
  -22.6544   18.2019  -36.0820 C   0  0  0  0  0  0  0  0  0  0  0  0
  -21.6226   17.2941  -35.9993 C   0  0  0  0  0  0  0  0  0  0  0  0
  -20.0568   21.7800  -39.0501 N   0  0  0  0  0  0  0  0  0  0  0  0
  -21.0736   21.2248  -39.6848 C   0  0  0  0  0  0  0  0  0  0  0  0
  -21.2047   20.6953  -40.9754 C   0  0  0  0  0  0  0  0  0  0  0  0
  -22.4181   20.1791  -41.3460 C   0  0  0  0  0  0  0  0  0  0  0  0
  -23.5007   20.1716  -40.4813 C   0  0  0  0  0  0  0  0  0  0  0  0
  -23.3520   20.6936  -39.2253 C   0  0  0  0  0  0  0  0  0  0  0  0
  -22.1383   21.2264  -38.8105 C   0  0  0  0  0  0  0  0  0  0  0  0
  1  2  1  0
  2  3  1  0
  3  4  1  0
  4  5  1  0
  5  6  1  0
  6  7  2  0
  6  8  1  0
  8  9  1  0
  9 10  1  0
 10 11  1  0
 11 12  1  0
 12 13  1  1
 13 14  2  0
 13 15  1  0
 15 16  1  0
 16 17  2  0
 17 18  1  0
 18 19  2  0
 19 20  1  0
 20 21  2  0
 21 22  1  0
 22 23  2  0
 23 24  1  0
 24 25  2  0
 25 26  1  0
 26 27  2  0
  3 28  2  0
 28 29  1  0
 29 30  2  0
 30 31  1  0
 31 32  2  0
 32 33  1  0
 33 34  2  0
 34  2  1  0
 12  8  1  0
 21 16  1  0
 27 22  1  0
 34 29  1  0
M  END
$$$$
