
     RDKit          3D

 23 26  0  0  0  0  0  0  0  0999 V2000
  -17.7173   40.5405  -21.7109 O   0  0  0  0  0  0  0  0  0  0  0  0
  -18.1078   41.5414  -21.0118 C   0  0  0  0  0  0  0  0  0  0  0  0
  -17.1904   42.0879  -20.0057 C   0  0  0  0  0  0  0  0  0  0  0  0
  -16.0453   42.8044  -20.2543 C   0  0  0  0  0  0  0  0  0  0  0  0
  -15.4561   43.1294  -19.0309 C   0  0  0  0  0  0  0  0  0  0  0  0
  -14.2032   43.8993  -18.8246 C   0  0  0  0  0  0  0  0  0  0  0  0
  -13.3548   43.5450  -17.6571 C   0  0  0  0  0  0  0  0  0  0  0  0
  -14.1265   44.8283  -17.5981 C   0  0  0  0  0  0  0  0  0  0  0  0
  -16.2486   42.6097  -18.1240 O   0  0  0  0  0  0  0  0  0  0  0  0
  -17.2617   42.0006  -18.6680 N   0  0  0  0  0  0  0  0  0  0  0  0
  -19.3872   42.0416  -21.2612 N   0  0  0  0  0  0  0  0  0  0  0  0
  -19.5345   43.4734  -21.3834 C   0  0  0  0  0  0  0  0  0  0  0  0
  -19.3696   43.8390  -22.8390 C   0  0  0  0  0  0  0  0  0  0  0  0
  -20.3806   44.8148  -23.3385 C   0  0  0  0  0  0  0  0  0  0  0  0
  -20.4907   45.9405  -22.3431 C   0  0  0  0  0  0  0  0  0  0  0  0
  -20.8947   45.4690  -20.9784 C   0  0  0  0  0  0  0  0  0  0  0  0
  -20.8248   43.9781  -20.8036 C   0  0  0  0  0  0  0  0  0  0  0  0
  -20.5440   41.1769  -21.3555 C   0  0  0  0  0  0  0  0  0  0  0  0
  -20.4396   39.8651  -20.6774 C   0  0  0  0  0  0  0  0  0  0  0  0
  -19.9836   38.6807  -21.4320 C   0  0  0  0  0  0  0  0  0  0  0  0
  -20.5721   38.6162  -22.8054 C   0  0  0  0  0  0  0  0  0  0  0  0
  -21.6499   39.6484  -23.0016 C   0  0  0  0  0  0  0  0  0  0  0  0
  -21.1344   41.0398  -22.7106 C   0  0  0  0  0  0  0  0  0  0  0  0
  1  2  2  0
  2  3  1  0
  3  4  1  0
  4  5  2  0
  5  6  1  0
  6  7  1  0
  7  8  1  0
  5  9  1  0
  9 10  1  0
  2 11  1  0
 11 12  1  0
 12 13  1  0
 13 14  1  0
 14 15  1  0
 15 16  1  0
 16 17  1  0
 11 18  1  0
 18 19  1  0
 19 20  1  0
 20 21  1  0
 21 22  1  0
 22 23  1  0
 10  3  2  0
 17 12  1  0
 23 18  1  0
  8  6  1  0
M  END
$$$$
