
     RDKit          3D

 18 19  0  0  0  0  0  0  0  0999 V2000
   -0.8391   18.0149  -24.5477 O   0  0  0  0  0  0  0  0  0  0  0  0
   -0.3310   17.1912  -23.7703 N   0  0  0  0  0  4  0  0  0  0  0  0
   -0.5246   15.8613  -23.9770 O   0  0  0  0  0  1  0  0  0  0  0  0
    0.4634   17.5916  -22.6468 C   0  0  0  0  0  0  0  0  0  0  0  0
    1.2044   16.6427  -21.9753 C   0  0  0  0  0  0  0  0  0  0  0  0
    1.9659   17.0651  -20.8873 C   0  0  0  0  0  0  0  0  0  0  0  0
    2.0115   18.3667  -20.4597 C   0  0  0  0  0  0  0  0  0  0  0  0
    2.7719   18.7294  -19.3950 O   0  0  0  0  0  0  0  0  0  0  0  0
    3.4781   19.8724  -19.1608 C   0  0  0  0  0  0  0  0  0  0  0  0
    4.4416   20.3055  -20.0929 C   0  0  0  0  0  0  0  0  0  0  0  0
    5.1855   21.4469  -19.9152 C   0  0  0  0  0  0  0  0  0  0  0  0
    5.0158   22.2313  -18.7942 C   0  0  0  0  0  0  0  0  0  0  0  0
    5.9686   23.6836  -18.5774 Cl  0  0  0  0  0  0  0  0  0  0  0  0
    4.0830   21.8236  -17.8788 C   0  0  0  0  0  0  0  0  0  0  0  0
    3.3327   20.6697  -18.0607 C   0  0  0  0  0  0  0  0  0  0  0  0
    2.1898   20.2835  -16.8023 Cl  0  0  0  0  0  0  0  0  0  0  0  0
    1.2434   19.2920  -21.1717 C   0  0  0  0  0  0  0  0  0  0  0  0
    0.4808   18.9085  -22.2496 C   0  0  0  0  0  0  0  0  0  0  0  0
  1  2  2  0
  2  3  1  0
  2  4  1  0
  4  5  2  0
  5  6  1  0
  6  7  2  0
  7  8  1  0
  8  9  1  0
  9 10  2  0
 10 11  1  0
 11 12  2  0
 12 13  1  0
 12 14  1  0
 14 15  2  0
 15 16  1  0
  7 17  1  0
 17 18  2  0
 18  4  1  0
 15  9  1  0
M  CHG  2   2   1   3  -1
M  END
$$$$
