
     RDKit          3D

 33 37  0  0  0  0  0  0  0  0999 V2000
  -20.1160   41.0103  -25.0769 C   0  0  0  0  0  0  0  0  0  0  0  0
  -19.8864   41.1459  -23.7138 O   0  0  0  0  0  0  0  0  0  0  0  0
  -19.6308   40.1207  -22.8122 C   0  0  0  0  0  0  0  0  0  0  0  0
  -19.9749   38.8203  -23.0636 C   0  0  0  0  0  0  0  0  0  0  0  0
  -19.7140   37.7897  -22.1489 C   0  0  0  0  0  0  0  0  0  0  0  0
  -20.0292   36.5707  -22.3693 O   0  0  0  0  0  0  0  0  0  0  0  0
  -20.3768   35.3472  -22.6082 C   0  0  0  0  0  0  0  0  0  0  0  0
  -19.4022   34.2501  -22.1704 C   0  0  0  0  0  0  0  0  0  0  0  0
  -19.5955   33.8926  -20.7197 C   0  0  0  0  0  0  0  0  0  0  0  0
  -20.9335   33.4765  -20.4195 N   0  0  0  0  0  0  0  0  0  0  0  0
  -21.2911   32.2214  -21.0270 C   0  0  0  0  0  0  0  0  0  0  0  0
  -21.8442   34.5277  -20.7467 C   0  0  0  0  0  0  0  0  0  0  0  0
  -21.7966   34.9562  -22.1893 C   0  0  0  0  0  0  0  0  0  0  0  0
  -19.0790   38.1870  -20.9656 C   0  0  0  0  0  0  0  0  0  0  0  0
  -18.7292   39.4931  -20.7043 C   0  0  0  0  0  0  0  0  0  0  0  0
  -18.9947   40.4892  -21.6164 C   0  0  0  0  0  0  0  0  0  0  0  0
  -18.6605   41.8388  -21.4060 N   0  0  0  0  0  0  0  0  0  0  0  0
  -17.6579   42.3557  -20.5411 C   0  0  0  0  0  0  0  0  0  0  0  0
  -16.9461   41.6464  -19.6669 N   0  0  0  0  0  0  0  0  0  0  0  0
  -15.9994   42.0938  -18.8414 C   0  0  0  0  0  0  0  0  0  0  0  0
  -15.7228   43.4444  -18.8960 C   0  0  0  0  0  0  0  0  0  0  0  0
  -16.4377   44.2168  -19.7886 C   0  0  0  0  0  0  0  0  0  0  0  0
  -17.3746   43.6904  -20.5851 N   0  0  0  0  0  0  0  0  0  0  0  0
  -15.9564   45.4797  -19.6198 N   0  0  0  0  0  0  0  0  0  0  0  0
  -16.4528   46.6052  -20.3826 C   0  0  0  0  0  0  0  0  0  0  0  0
  -17.9451   46.5965  -20.4877 C   0  0  0  0  0  0  0  0  0  0  0  0
  -18.2296   47.4431  -21.7308 C   0  0  0  0  0  0  0  0  0  0  0  0
  -17.1526   46.9523  -22.6799 C   0  0  0  0  0  0  0  0  0  0  0  0
  -15.9972   46.5225  -21.8352 C   0  0  0  0  0  0  0  0  0  0  0  0
  -15.0108   45.5093  -18.6939 C   0  0  0  0  0  0  0  0  0  0  0  0
  -14.3777   46.5469  -18.3208 O   0  0  0  0  0  0  0  0  0  0  0  0
  -14.8619   44.2517  -18.2423 N   0  0  0  0  0  0  0  0  0  0  0  0
  -13.9298   43.8431  -17.2226 C   0  0  0  0  0  0  0  0  0  0  0  0
  1  2  1  0
  2  3  1  0
  3  4  2  0
  4  5  1  0
  5  6  1  0
  6  7  1  0
  7  8  1  0
  8  9  1  0
  9 10  1  0
 10 11  1  0
 10 12  1  0
 12 13  1  0
  5 14  2  0
 14 15  1  0
 15 16  2  0
 16 17  1  0
 17 18  1  0
 18 19  2  0
 19 20  1  0
 20 21  2  0
 21 22  1  0
 22 23  2  0
 22 24  1  0
 24 25  1  0
 25 26  1  0
 26 27  1  0
 27 28  1  0
 28 29  1  0
 24 30  1  0
 30 31  2  0
 30 32  1  0
 32 33  1  0
 16  3  1  0
 23 18  1  0
 29 25  1  0
 13  7  1  0
 32 21  1  0
M  END
$$$$
