
     RDKit          3D

 39 43  0  0  0  0  0  0  0  0999 V2000
  -14.3698   17.8877  -45.7409 N   0  0  0  0  0  0  0  0  0  0  0  0
  -14.0596   17.9777  -44.6498 C   0  0  0  0  0  0  0  0  0  0  0  0
  -13.6481   18.1040  -43.2738 C   0  0  0  0  0  0  0  0  0  0  0  0
  -12.3991   17.7124  -42.8158 C   0  0  0  0  0  0  0  0  0  0  0  0
  -11.5170   17.1704  -43.7206 O   0  0  0  0  0  0  0  0  0  0  0  0
  -10.3706   17.8982  -44.0386 C   0  0  0  0  0  0  0  0  0  0  0  0
  -10.4725   19.1906  -44.4998 C   0  0  0  0  0  0  0  0  0  0  0  0
   -9.3096   19.8839  -44.8061 C   0  0  0  0  0  0  0  0  0  0  0  0
   -8.1054   19.2672  -44.6424 C   0  0  0  0  0  0  0  0  0  0  0  0
   -6.9772   19.9485  -44.9448 F   0  0  0  0  0  0  0  0  0  0  0  0
   -7.9423   17.9597  -44.1779 C   0  0  0  0  0  0  0  0  0  0  0  0
   -6.6500   17.4071  -44.0492 N   0  0  0  0  0  0  0  0  0  0  0  0
   -6.1942   16.5342  -43.0469 C   0  0  0  0  0  0  0  0  0  0  0  0
   -6.9668   16.1095  -42.1731 O   0  0  0  0  0  0  0  0  0  0  0  0
   -4.7534   16.0888  -43.0036 C   0  0  0  0  0  0  0  0  0  0  0  0
   -4.5854   14.8421  -43.7986 C   0  0  0  0  0  0  0  0  0  0  0  0
   -4.4321   13.5980  -43.2238 C   0  0  0  0  0  0  0  0  0  0  0  0
   -4.2794   12.4414  -43.9813 C   0  0  0  0  0  0  0  0  0  0  0  0
   -4.2802   12.5340  -45.3543 C   0  0  0  0  0  0  0  0  0  0  0  0
   -4.4309   13.7612  -45.9638 C   0  0  0  0  0  0  0  0  0  0  0  0
   -4.4246   13.7974  -47.4470 C   0  0  0  0  0  0  0  0  0  0  0  0
   -3.9137   12.6394  -48.0003 F   0  0  0  0  0  0  0  0  0  0  0  0
   -5.7026   13.9964  -47.9435 F   0  0  0  0  0  0  0  0  0  0  0  0
   -3.6879   14.9205  -47.8405 F   0  0  0  0  0  0  0  0  0  0  0  0
   -4.5816   14.9002  -45.1798 C   0  0  0  0  0  0  0  0  0  0  0  0
   -9.0999   17.2977  -43.8833 C   0  0  0  0  0  0  0  0  0  0  0  0
  -12.1565   17.9098  -41.4745 C   0  0  0  0  0  0  0  0  0  0  0  0
  -13.0518   18.4513  -40.6062 C   0  0  0  0  0  0  0  0  0  0  0  0
  -14.3314   18.8539  -41.0673 C   0  0  0  0  0  0  0  0  0  0  0  0
  -15.2590   19.3818  -40.3409 N   0  0  0  0  0  0  0  0  0  0  0  0
  -16.4372   19.7364  -40.8733 C   0  0  0  0  0  0  0  0  0  0  0  0
  -17.5943   20.3245  -40.2964 N   0  0  0  0  0  0  0  0  0  0  0  0
  -18.4531   21.0793  -41.1008 C   0  0  0  0  0  0  0  0  0  0  0  0
  -18.5127   20.8258  -42.3371 O   0  0  0  0  0  0  0  0  0  0  0  0
  -19.3129   22.1878  -40.5480 C   0  0  0  0  0  0  0  0  0  0  0  0
  -20.7330   22.2581  -40.9319 C   0  0  0  0  0  0  0  0  0  0  0  0
  -19.7799   23.2031  -41.5844 C   0  0  0  0  0  0  0  0  0  0  0  0
  -16.1896   19.2661  -42.5760 S   0  0  0  0  0  0  0  0  0  0  0  0
  -14.5538   18.6518  -42.3973 C   0  0  0  0  0  0  0  0  0  0  0  0
  1  2  3  0
  2  3  1  0
  3  4  2  0
  4  5  1  0
  5  6  1  0
  6  7  2  0
  7  8  1  0
  8  9  2  0
  9 10  1  0
  9 11  1  0
 11 12  1  0
 12 13  1  0
 13 14  2  0
 13 15  1  0
 15 16  1  0
 16 17  2  0
 17 18  1  0
 18 19  2  0
 19 20  1  0
 20 21  1  0
 21 22  1  0
 21 23  1  0
 21 24  1  0
 20 25  2  0
 11 26  2  0
  4 27  1  0
 27 28  2  0
 28 29  1  0
 29 30  1  0
 30 31  2  0
 31 32  1  0
 32 33  1  0
 33 34  2  0
 33 35  1  0
 35 36  1  0
 36 37  1  0
 31 38  1  0
 38 39  1  0
 39  3  1  0
 26  6  1  0
 39 29  2  0
 25 16  1  0
 37 35  1  0
M  END
$$$$
