
     RDKit          3D

 37 41  0  0  0  0  0  0  0  0999 V2000
  -21.2341   49.7110  -23.8219 C   0  0  0  0  0  0  0  0  0  0  0  0
  -21.2974   48.6824  -24.9212 C   0  0  0  0  0  0  0  0  0  0  0  0
  -21.7845   48.9271  -26.1442 N   0  0  0  0  0  0  0  0  0  0  0  0
  -21.6614   47.7861  -26.7923 N   0  0  0  0  0  0  0  0  0  0  0  0
  -21.1088   46.8389  -25.9989 C   0  0  0  0  0  0  0  0  0  0  0  0
  -20.8684   45.4734  -26.4995 C   0  0  0  0  0  0  0  0  0  0  0  0
  -21.9683   45.1438  -27.5033 C   0  0  0  0  0  0  0  0  0  0  0  0
  -21.1037   44.5284  -25.3144 C   0  0  0  0  0  0  0  0  0  0  0  0
  -20.8794   47.3979  -24.8249 N   0  0  0  0  0  0  0  0  0  0  0  0
  -20.2964   46.7507  -23.6745 C   0  0  1  0  0  0  0  0  0  0  0  0
  -21.0909   46.8903  -22.4106 C   0  0  0  0  0  0  0  0  0  0  0  0
  -20.2741   46.2693  -21.2939 C   0  0  2  0  0  0  0  0  0  0  0  0
  -18.8744   46.7880  -21.2469 C   0  0  0  0  0  0  0  0  0  0  0  0
  -18.0542   45.9001  -22.1597 C   0  0  0  0  0  0  0  0  0  0  0  0
  -19.0913   44.9133  -22.6438 C   0  0  2  0  0  0  0  0  0  0  0  0
  -19.7494   45.3849  -23.9314 C   0  0  0  0  0  0  0  0  0  0  0  0
  -20.1073   44.8636  -21.5796 N   0  0  0  0  0  0  0  0  0  0  0  0
  -19.4952   44.1361  -20.4985 C   0  0  0  0  0  0  0  0  0  0  0  0
  -17.9963   44.2157  -20.4841 C   0  0  0  0  0  0  0  0  0  0  0  0
  -17.5152   43.2909  -19.3757 C   0  0  2  0  0  0  0  0  0  0  0  0
  -16.0908   43.4488  -19.1394 N   0  0  0  0  0  0  0  0  0  0  0  0
  -15.6492   43.6646  -17.8245 C   0  0  0  0  0  0  0  0  0  0  0  0
  -16.3251   43.2306  -16.8565 O   0  0  0  0  0  0  0  0  0  0  0  0
  -14.3906   44.3986  -17.4951 C   0  0  0  0  0  0  0  0  0  0  0  0
  -13.8519   44.0390  -16.1474 C   0  0  0  0  0  0  0  0  0  0  0  0
  -13.1067   42.7431  -16.1080 C   0  0  0  0  0  0  0  0  0  0  0  0
  -12.0339   42.6548  -17.1608 C   0  0  0  0  0  0  0  0  0  0  0  0
  -11.5601   41.3580  -17.1585 F   0  0  0  0  0  0  0  0  0  0  0  0
  -10.9810   43.4945  -16.9473 F   0  0  0  0  0  0  0  0  0  0  0  0
  -12.6199   42.9427  -18.5257 C   0  0  0  0  0  0  0  0  0  0  0  0
  -13.3600   44.2465  -18.5641 C   0  0  0  0  0  0  0  0  0  0  0  0
  -17.7093   41.8880  -19.8728 C   0  0  0  0  0  0  0  0  0  0  0  0
  -18.7575   41.0982  -19.4478 C   0  0  0  0  0  0  0  0  0  0  0  0
  -18.8871   39.8091  -19.9413 C   0  0  0  0  0  0  0  0  0  0  0  0
  -17.9937   39.2918  -20.8493 C   0  0  0  0  0  0  0  0  0  0  0  0
  -16.9434   40.0744  -21.2792 C   0  0  0  0  0  0  0  0  0  0  0  0
  -16.8147   41.3669  -20.7834 C   0  0  0  0  0  0  0  0  0  0  0  0
  1  2  1  0
  2  3  2  0
  3  4  1  0
  4  5  2  0
  5  6  1  0
  6  7  1  0
  6  8  1  0
  5  9  1  0
 10  9  1  6
 10 11  1  0
 12 11  1  6
 12 13  1  0
 13 14  1  0
 15 14  1  1
 15 16  1  0
 15 17  1  0
 17 18  1  0
 18 19  1  0
 20 19  1  6
 20 21  1  0
 21 22  1  0
 22 23  2  0
 22 24  1  0
 24 25  1  0
 25 26  1  0
 26 27  1  0
 27 28  1  0
 27 29  1  0
 27 30  1  0
 30 31  1  0
 20 32  1  0
 32 33  2  0
 33 34  1  0
 34 35  2  0
 35 36  1  0
 36 37  2  0
  9  2  1  0
 16 10  1  0
 31 24  1  0
 37 32  1  0
 17 12  1  0
M  END
$$$$
