
     RDKit          3D

 22 25  0  0  0  0  0  0  0  0999 V2000
  -18.0793   32.0895  -21.1938 C   0  0  0  0  0  0  0  0  0  0  0  0
  -19.4962   32.1676  -21.1950 O   0  0  0  0  0  0  0  0  0  0  0  0
  -20.1127   33.4192  -21.1627 C   0  0  0  0  0  0  0  0  0  0  0  0
  -19.4024   34.5825  -21.3732 C   0  0  0  0  0  0  0  0  0  0  0  0
  -20.0501   35.7889  -21.3321 C   0  0  0  0  0  0  0  0  0  0  0  0
  -21.4095   35.8167  -21.0792 C   0  0  0  0  0  0  0  0  0  0  0  0
  -22.1526   34.6786  -20.8642 C   0  0  0  0  0  0  0  0  0  0  0  0
  -21.4718   33.4765  -20.9118 C   0  0  0  0  0  0  0  0  0  0  0  0
  -22.1630   32.2775  -20.7025 O   0  0  0  0  0  0  0  0  0  0  0  0
  -22.0395   37.1757  -21.0522 C   0  0  0  0  0  0  0  0  0  0  0  0
  -21.6449   37.8201  -22.3883 C   0  0  0  0  0  0  0  0  0  0  0  0
  -20.1620   37.9811  -22.5136 C   0  0  2  0  0  0  0  0  0  0  0  0
  -19.3956   37.0841  -21.5404 C   0  0  2  0  0  0  0  0  0  0  0  0
  -17.9855   37.0221  -21.9991 C   0  0  0  0  0  0  0  0  0  0  0  0
  -17.3741   38.4053  -21.9085 C   0  0  0  0  0  0  0  0  0  0  0  0
  -18.1883   39.3856  -22.7157 C   0  0  2  0  0  0  0  0  0  0  0  0
  -18.0566   39.2140  -24.1868 C   0  0  0  0  0  0  0  0  0  0  0  0
  -17.9047   40.8206  -22.3669 C   0  0  1  0  0  0  0  0  0  0  0  0
  -16.8030   41.3300  -23.0212 O   0  0  0  0  0  0  0  0  0  0  0  0
  -19.1768   41.5473  -22.8201 C   0  0  0  0  0  0  0  0  0  0  0  0
  -20.2348   40.4664  -22.9717 C   0  0  0  0  0  0  0  0  0  0  0  0
  -19.6507   39.3357  -22.2480 C   0  0  1  0  0  0  0  0  0  0  0  0
  1  2  1  0
  2  3  1  0
  3  4  2  0
  4  5  1  0
  5  6  2  0
  6  7  1  0
  7  8  2  0
  8  9  1  0
  6 10  1  0
 10 11  1  0
 12 11  1  1
 12 13  1  0
 13 14  1  6
 14 15  1  0
 15 16  1  0
 16 17  1  6
 16 18  1  0
 18 19  1  6
 18 20  1  0
 20 21  1  0
 22 21  1  6
  8  3  1  0
 22 12  1  0
 13  5  1  0
 22 16  1  0
M  END
$$$$
