
     RDKit          3D

 23 24  0  0  0  0  0  0  0  0999 V2000
  -26.8131   12.0924  -24.4535 C   0  0  0  0  0  0  0  0  0  0  0  0
  -25.4910   11.5773  -24.3695 N   0  0  0  0  0  0  0  0  0  0  0  0
  -25.3956   10.4030  -23.6559 C   0  0  0  0  0  0  0  0  0  0  0  0
  -26.0515    9.1907  -24.2321 C   0  0  0  0  0  0  0  0  0  0  0  0
  -26.7003    9.1031  -25.3406 C   0  0  0  0  0  0  0  0  0  0  0  0
  -27.3240    7.8826  -25.8524 C   0  0  0  0  0  0  0  0  0  0  0  0
  -28.0068    7.8766  -27.0536 C   0  0  0  0  0  0  0  0  0  0  0  0
  -28.5961    6.7408  -27.5369 C   0  0  0  0  0  0  0  0  0  0  0  0
  -28.5124    5.5687  -26.8158 C   0  0  0  0  0  0  0  0  0  0  0  0
  -27.8456    5.5123  -25.6121 C   0  0  0  0  0  0  0  0  0  0  0  0
  -27.2598    6.6973  -25.1592 C   0  0  0  0  0  0  0  0  0  0  0  0
  -24.4377   12.5278  -24.2532 C   0  0  0  0  0  0  0  0  0  0  0  0
  -24.6565   13.5688  -23.2427 C   0  0  0  0  0  0  0  0  0  0  0  0
  -25.3281   14.7145  -23.7208 C   0  0  0  0  0  0  0  0  0  0  0  0
  -25.6541   15.6906  -22.8171 C   0  0  0  0  0  0  0  0  0  0  0  0
  -25.3571   15.5997  -21.4845 C   0  0  0  0  0  0  0  0  0  0  0  0
  -24.6999   14.4769  -21.0335 C   0  0  0  0  0  0  0  0  0  0  0  0
  -24.3561   14.3392  -19.7024 C   0  0  0  0  0  0  0  0  0  0  0  0
  -23.6813   13.2391  -19.2299 C   0  0  0  0  0  0  0  0  0  0  0  0
  -23.3392   12.2441  -20.1235 C   0  0  0  0  0  0  0  0  0  0  0  0
  -23.6622   12.3409  -21.4571 C   0  0  0  0  0  0  0  0  0  0  0  0
  -24.3411   13.4489  -21.9089 C   0  0  0  0  0  0  0  0  0  0  0  0
  -26.1251   10.5439  -24.0351 Cl  0  0  0  0  0  0  0  0  0  0  0  0
  1  2  1  0
  2  3  1  0
  3  4  1  0
  4  5  2  0
  5  6  1  0
  6  7  2  0
  7  8  1  0
  8  9  2  0
  9 10  1  0
 10 11  2  0
  2 12  1  0
 12 13  1  0
 13 14  2  0
 14 15  1  0
 15 16  2  0
 16 17  1  0
 17 18  2  0
 18 19  1  0
 19 20  2  0
 20 21  1  0
 21 22  2  0
 11  6  1  0
 22 13  1  0
 22 17  1  0
M  END
$$$$
