
     RDKit          3D

 26 27  0  0  0  0  0  0  0  0999 V2000
  -20.3700   42.1893  -24.0850 N   0  0  0  0  0  0  0  0  0  0  0  0
  -20.4000   40.9782  -23.6811 C   0  0  0  0  0  0  0  0  0  0  0  0
  -20.4367   39.5986  -23.2092 N   0  0  0  0  0  0  0  0  0  0  0  0
  -20.0577   39.1005  -22.0946 C   0  0  0  0  0  0  0  0  0  0  0  0
  -20.5517   38.0156  -21.7996 N   0  0  0  0  0  0  0  0  0  0  0  0
  -21.6782   37.2951  -22.0122 C   0  0  0  0  0  0  0  0  0  0  0  0
  -21.7547   36.0438  -22.5061 C   0  0  0  0  0  0  0  0  0  0  0  0
  -23.0509   35.6846  -23.0172 C   0  0  0  0  0  0  0  0  0  0  0  0
  -24.0704   36.5356  -22.9350 N   0  0  0  0  0  0  0  0  0  0  0  0
  -23.9879   37.7679  -22.4928 C   0  0  0  0  0  0  0  0  0  0  0  0
  -22.7654   38.1932  -22.0087 C   0  0  0  0  0  0  0  0  0  0  0  0
  -18.7952   39.5328  -21.4662 N   0  0  0  0  0  0  0  0  0  0  0  0
  -18.1244   40.6284  -22.0851 C   0  0  0  0  0  0  0  0  0  0  0  0
  -18.5073   41.9242  -21.5156 C   0  0  0  0  0  0  0  0  0  0  0  0
  -17.8069   42.2127  -20.2084 C   0  0  0  0  0  0  0  0  0  0  0  0
  -17.1230   43.5442  -20.3840 C   0  0  0  0  0  0  0  0  0  0  0  0
  -16.4432   43.9910  -19.1349 C   0  0  0  0  0  0  0  0  0  0  0  0
  -14.8974   44.1226  -19.2460 C   0  0  0  0  0  0  0  0  0  0  0  0
  -14.6111   43.5621  -17.9154 O   0  0  0  0  0  0  0  0  0  0  0  0
  -13.3098   43.8922  -17.5534 C   0  0  0  0  0  0  0  0  0  0  0  0
  -12.6349   44.6821  -18.3973 C   0  0  0  0  0  0  0  0  0  0  0  0
  -11.3145   45.0774  -18.0758 C   0  0  0  0  0  0  0  0  0  0  0  0
  -10.8263   44.6916  -16.8864 C   0  0  0  0  0  0  0  0  0  0  0  0
   -9.2630   45.5019  -16.3526 Cl  0  0  0  0  0  0  0  0  0  0  0  0
  -11.4171   43.9237  -16.0012 C   0  0  0  0  0  0  0  0  0  0  0  0
  -12.7437   43.4589  -16.3291 C   0  0  0  0  0  0  0  0  0  0  0  0
  1  2  3  0
  2  3  1  0
  3  4  1  0
  4  5  2  0
  5  6  1  0
  6  7  2  0
  7  8  1  0
  8  9  2  0
  9 10  1  0
 10 11  2  0
  4 12  1  0
 12 13  1  0
 13 14  1  0
 14 15  1  0
 15 16  1  0
 16 17  1  0
 17 18  1  0
 18 19  1  0
 19 20  1  0
 20 21  2  0
 21 22  1  0
 22 23  2  0
 23 24  1  0
 23 25  1  0
 25 26  2  0
 11  6  1  0
 26 20  1  0
M  END
$$$$
