
     RDKit          3D

 26 28  0  0  0  0  0  0  0  0999 V2000
  -18.7021   42.7246  -21.7787 O   0  0  0  0  0  0  0  0  0  0  0  0
  -18.7652   41.9246  -20.8216 C   0  0  0  0  0  0  0  0  0  0  0  0
  -19.8286   40.9204  -20.6448 C   0  0  0  0  0  0  0  0  0  0  0  0
  -19.4330   39.5451  -20.9451 C   0  0  0  0  0  0  0  0  0  0  0  0
  -18.1561   39.1212  -20.7353 N   0  0  0  0  0  0  0  0  0  0  0  0
  -17.7337   37.9130  -21.0396 N   0  0  0  0  0  0  0  0  0  0  0  0
  -18.5411   36.9910  -21.5877 C   0  0  0  0  0  0  0  0  0  0  0  0
  -18.1353   35.8213  -21.8840 O   0  0  0  0  0  0  0  0  0  0  0  0
  -19.8692   37.3533  -21.8314 C   0  0  0  0  0  0  0  0  0  0  0  0
  -20.7231   36.4186  -22.3869 C   0  0  0  0  0  0  0  0  0  0  0  0
  -22.0262   36.7728  -22.6178 C   0  0  0  0  0  0  0  0  0  0  0  0
  -22.4804   38.0172  -22.3084 C   0  0  0  0  0  0  0  0  0  0  0  0
  -21.6227   38.9450  -21.7541 C   0  0  0  0  0  0  0  0  0  0  0  0
  -20.3064   38.6372  -21.5050 C   0  0  0  0  0  0  0  0  0  0  0  0
  -17.6829   42.0566  -19.8773 N   0  0  0  0  0  0  0  0  0  0  0  0
  -16.6623   43.0262  -19.9622 C   0  0  0  0  0  0  0  0  0  0  0  0
  -15.8719   43.2492  -18.8363 C   0  0  0  0  0  0  0  0  0  0  0  0
  -14.8789   44.2060  -18.8274 C   0  0  0  0  0  0  0  0  0  0  0  0
  -14.6325   44.9909  -19.9630 C   0  0  0  0  0  0  0  0  0  0  0  0
  -13.3757   46.2057  -19.9511 Cl  0  0  0  0  0  0  0  0  0  0  0  0
  -15.4308   44.7477  -21.0596 C   0  0  0  0  0  0  0  0  0  0  0  0
  -15.1668   45.5934  -22.2684 C   0  0  0  0  0  0  0  0  0  0  0  0
  -13.8193   45.4264  -22.6220 F   0  0  0  0  0  0  0  0  0  0  0  0
  -16.0271   45.2580  -23.2764 F   0  0  0  0  0  0  0  0  0  0  0  0
  -15.3530   46.9379  -21.9664 F   0  0  0  0  0  0  0  0  0  0  0  0
  -16.4338   43.7814  -21.0706 C   0  0  0  0  0  0  0  0  0  0  0  0
  1  2  2  0
  2  3  1  0
  3  4  1  0
  4  5  2  0
  5  6  1  0
  6  7  1  0
  7  8  2  0
  7  9  1  0
  9 10  2  0
 10 11  1  0
 11 12  2  0
 12 13  1  0
 13 14  2  0
  2 15  1  0
 15 16  1  0
 16 17  2  0
 17 18  1  0
 18 19  2  0
 19 20  1  0
 19 21  1  0
 21 22  1  0
 22 23  1  0
 22 24  1  0
 22 25  1  0
 21 26  2  0
 14  4  1  0
 26 16  1  0
 14  9  1  0
M  END
$$$$
