
     RDKit          3D

 32 35  0  0  0  0  0  0  0  0999 V2000
  -20.3780   15.4600  -39.2509 C   0  0  0  0  0  0  0  0  0  0  0  0
  -20.3600   16.0680  -37.8589 C   0  0  0  0  0  0  0  0  0  0  0  0
  -19.3987   17.1433  -37.7250 N   0  0  0  0  0  0  0  0  0  0  0  0
  -18.2150   16.8177  -37.0103 C   0  0  0  0  0  0  0  0  0  0  0  0
  -18.0958   15.6766  -36.5144 O   0  0  0  0  0  0  0  0  0  0  0  0
  -17.1074   17.7532  -36.8126 C   0  0  0  0  0  0  0  0  0  0  0  0
  -17.2328   18.6200  -35.7220 C   0  0  0  0  0  0  0  0  0  0  0  0
  -16.2095   19.5157  -35.4959 C   0  0  0  0  0  0  0  0  0  0  0  0
  -15.1033   19.5579  -36.3116 C   0  0  0  0  0  0  0  0  0  0  0  0
  -15.0041   18.6957  -37.3765 C   0  0  0  0  0  0  0  0  0  0  0  0
  -16.0163   17.7794  -37.6351 C   0  0  0  0  0  0  0  0  0  0  0  0
  -15.9462   16.8980  -38.7003 O   0  0  0  0  0  0  0  0  0  0  0  0
  -15.0880   17.2199  -39.7768 C   0  0  0  0  0  0  0  0  0  0  0  0
  -19.5247   18.4422  -38.2523 C   0  0  0  0  0  0  0  0  0  0  0  0
  -18.8496   18.7754  -39.4514 C   0  0  0  0  0  0  0  0  0  0  0  0
  -18.9399   20.0246  -39.9789 C   0  0  0  0  0  0  0  0  0  0  0  0
  -19.6902   20.9947  -39.3588 C   0  0  0  0  0  0  0  0  0  0  0  0
  -20.3489   20.6861  -38.1973 C   0  0  0  0  0  0  0  0  0  0  0  0
  -20.2647   19.4004  -37.6414 C   0  0  0  0  0  0  0  0  0  0  0  0
  -21.0022   19.2351  -36.4471 N   0  0  0  0  0  0  0  0  0  0  0  0
  -22.1973   18.4080  -36.3757 C   0  0  0  0  0  0  0  0  0  0  0  0
  -23.3570   19.1655  -35.7070 C   0  0  0  0  0  0  0  0  0  0  0  0
  -22.9228   19.5444  -34.4088 N   0  0  0  0  0  0  0  0  0  0  0  0
  -21.8756   20.5314  -34.5606 C   0  0  0  0  0  0  0  0  0  0  0  0
  -20.6407   19.9218  -35.2127 C   0  0  1  0  0  0  0  0  0  0  0  0
  -20.0476   19.0095  -34.1694 C   0  0  0  0  0  0  0  0  0  0  0  0
  -19.6204   22.1374  -40.0717 N   0  0  0  0  0  0  0  0  0  0  0  0
  -20.2804   23.3859  -39.7357 C   0  0  0  0  0  0  0  0  0  0  0  0
  -18.8327   21.8829  -41.1288 C   0  0  0  0  0  0  0  0  0  0  0  0
  -18.5534   22.7370  -42.0057 O   0  0  0  0  0  0  0  0  0  0  0  0
  -18.4098   20.6041  -41.0894 N   0  0  0  0  0  0  0  0  0  0  0  0
  -17.5480   19.9484  -42.0454 C   0  0  0  0  0  0  0  0  0  0  0  0
  1  2  1  0
  2  3  1  0
  3  4  1  0
  4  5  2  0
  4  6  1  0
  6  7  2  0
  7  8  1  0
  8  9  2  0
  9 10  1  0
 10 11  2  0
 11 12  1  0
 12 13  1  0
  3 14  1  0
 14 15  2  0
 15 16  1  0
 16 17  2  0
 17 18  1  0
 18 19  2  0
 19 20  1  0
 20 21  1  0
 21 22  1  0
 22 23  1  0
 23 24  1  0
 24 25  1  0
 25 26  1  1
 17 27  1  0
 27 28  1  0
 27 29  1  0
 29 30  2  0
 29 31  1  0
 31 32  1  0
 11  6  1  0
 19 14  1  0
 25 20  1  0
 31 16  1  0
M  END
$$$$
