
     RDKit          3D

 30 31  0  0  0  0  0  0  0  0999 V2000
  -17.3450   35.7145  -22.4736 C   0  0  0  0  0  0  0  0  0  0  0  0
  -18.2547   36.4634  -22.1288 C   0  0  0  0  0  0  0  0  0  0  0  0
  -19.3479   37.3358  -21.7312 C   0  0  0  0  0  0  0  0  0  0  0  0
  -20.6083   36.7481  -21.3925 C   0  0  0  0  0  0  0  0  0  0  0  0
  -21.5977   37.5826  -20.9705 C   0  0  0  0  0  0  0  0  0  0  0  0
  -21.4626   38.9629  -20.8476 C   0  0  0  0  0  0  0  0  0  0  0  0
  -20.2025   39.4784  -21.1948 C   0  0  0  0  0  0  0  0  0  0  0  0
  -19.9051   40.8840  -21.0295 N   0  0  0  0  0  0  0  0  0  0  0  0
  -18.6464   41.1067  -20.3429 C   0  0  0  0  0  0  0  0  0  0  0  0
  -17.9586   40.0417  -19.7969 N   0  0  0  0  0  0  0  0  0  0  0  0
  -16.8076   40.1711  -19.1598 C   0  0  0  0  0  0  0  0  0  0  0  0
  -16.2147   41.3698  -19.0046 N   0  0  0  0  0  0  0  0  0  0  0  0
  -16.8451   42.4541  -19.5262 C   0  0  0  0  0  0  0  0  0  0  0  0
  -16.2500   43.6882  -19.3383 C   0  0  0  0  0  0  0  0  0  0  0  0
  -16.8509   44.7755  -19.7853 C   0  0  0  0  0  0  0  0  0  0  0  0
  -16.3805   46.0748  -19.6588 O   0  0  0  0  0  0  0  0  0  0  0  0
  -15.1730   46.3551  -18.9465 C   0  0  0  0  0  0  0  0  0  0  0  0
  -15.3264   46.0802  -17.4916 C   0  0  0  0  0  0  0  0  0  0  0  0
  -14.1475   46.2774  -16.8041 O   0  0  0  0  0  0  0  0  0  0  0  0
  -13.1369   45.3933  -17.1121 C   0  0  0  0  0  0  0  0  0  0  0  0
  -18.1235   44.7316  -20.4730 C   0  0  0  0  0  0  0  0  0  0  0  0
  -18.6650   45.7666  -20.8671 O   0  0  0  0  0  0  0  0  0  0  0  0
  -19.2481   46.8774  -21.2912 C   0  0  0  0  0  0  0  0  0  0  0  0
  -20.6642   46.9217  -20.6921 C   0  0  0  0  0  0  0  0  0  0  0  0
  -21.3781   48.0118  -20.9846 O   0  0  0  0  0  0  0  0  0  0  0  0
  -21.6025   48.4037  -22.2567 C   0  0  0  0  0  0  0  0  0  0  0  0
  -18.6667   43.4477  -20.6453 C   0  0  0  0  0  0  0  0  0  0  0  0
  -18.0662   42.3399  -20.1970 C   0  0  0  0  0  0  0  0  0  0  0  0
  -19.2526   38.6545  -21.6016 C   0  0  0  0  0  0  0  0  0  0  0  0
  -18.4108   42.4375  -20.2985 Cl  0  0  0  0  0  0  0  0  0  0  0  0
  1  2  3  0
  2  3  1  0
  3  4  2  0
  4  5  1  0
  5  6  2  0
  6  7  1  0
  7  8  1  0
  8  9  1  0
  9 10  2  0
 10 11  1  0
 11 12  2  0
 12 13  1  0
 13 14  2  0
 14 15  1  0
 15 16  1  0
 16 17  1  0
 17 18  1  0
 18 19  1  0
 19 20  1  0
 15 21  2  0
 21 22  1  0
 22 23  1  0
 23 24  1  0
 24 25  1  0
 25 26  1  0
 21 27  1  0
 27 28  2  0
  7 29  2  0
 29  3  1  0
 28  9  1  0
 28 13  1  0
M  END
$$$$
