
     RDKit          3D

 31 33  0  0  0  0  0  0  0  0999 V2000
  -18.7063   40.0766  -18.9105 C   0  0  0  0  0  0  0  0  0  0  0  0
  -18.6111   40.8190  -20.2062 C   0  0  0  0  0  0  0  0  0  0  0  0
  -18.8291   42.1601  -20.2244 C   0  0  0  0  0  0  0  0  0  0  0  0
  -18.7504   42.8716  -21.4045 C   0  0  0  0  0  0  0  0  0  0  0  0
  -19.0664   44.6035  -21.3299 S   0  0  0  0  0  0  0  0  0  0  0  0
  -17.6325   45.6469  -21.5405 C   0  0  0  0  0  0  0  0  0  0  0  0
  -16.6740   45.5429  -20.4315 C   0  0  0  0  0  0  0  0  0  0  0  0
  -15.6011   44.2397  -19.9995 S   0  0  0  0  0  0  0  0  0  0  0  0
  -14.8602   45.0600  -18.5447 C   0  0  0  0  0  0  0  0  0  0  0  0
  -13.8459   44.4170  -17.7217 C   0  0  0  0  0  0  0  0  0  0  0  0
  -13.4538   43.1382  -17.9953 C   0  0  0  0  0  0  0  0  0  0  0  0
  -12.4906   42.5069  -17.2460 C   0  0  0  0  0  0  0  0  0  0  0  0
  -11.9273   43.1960  -16.2079 C   0  0  0  0  0  0  0  0  0  0  0  0
  -10.8733   42.5734  -15.3599 C   0  0  0  0  0  0  0  0  0  0  0  0
  -10.0499   41.7830  -16.1363 F   0  0  0  0  0  0  0  0  0  0  0  0
  -10.0629   43.5550  -14.7988 F   0  0  0  0  0  0  0  0  0  0  0  0
  -11.4644   41.7971  -14.3943 F   0  0  0  0  0  0  0  0  0  0  0  0
  -12.2941   44.4947  -15.8930 C   0  0  0  0  0  0  0  0  0  0  0  0
  -11.7165   45.1328  -14.8658 F   0  0  0  0  0  0  0  0  0  0  0  0
  -13.2492   45.0892  -16.6543 C   0  0  0  0  0  0  0  0  0  0  0  0
  -15.4922   46.1693  -18.5699 N   0  0  0  0  0  0  0  0  0  0  0  0
  -16.3790   46.4781  -19.4434 C   0  0  0  0  0  0  0  0  0  0  0  0
  -17.1208   47.8022  -19.4575 C   0  0  0  0  0  0  0  0  0  0  0  0
  -18.4488   42.1802  -22.5398 C   0  0  0  0  0  0  0  0  0  0  0  0
  -18.2259   40.8342  -22.5448 C   0  0  0  0  0  0  0  0  0  0  0  0
  -18.2990   40.0868  -21.3596 C   0  0  0  0  0  0  0  0  0  0  0  0
  -18.0983   38.8155  -21.3035 O   0  0  0  0  0  0  0  0  0  0  0  0
  -17.8873   37.5444  -21.1992 C   0  0  0  0  0  0  0  0  0  0  0  0
  -19.0498   36.7206  -20.6837 C   0  0  0  0  0  0  0  0  0  0  0  0
  -18.8353   35.6882  -20.0319 O   0  0  0  0  0  0  0  0  0  0  0  0
  -20.3296   37.1469  -20.9573 O   0  0  0  0  0  0  0  0  0  0  0  0
  1  2  1  0
  2  3  2  0
  3  4  1  0
  4  5  1  0
  5  6  1  0
  6  7  1  0
  7  8  1  0
  8  9  1  0
  9 10  1  0
 10 11  2  0
 11 12  1  0
 12 13  2  0
 13 14  1  0
 14 15  1  0
 14 16  1  0
 14 17  1  0
 13 18  1  0
 18 19  1  0
 18 20  2  0
  9 21  2  0
 21 22  1  0
 22 23  1  0
  4 24  2  0
 24 25  1  0
 25 26  2  0
 26 27  1  0
 27 28  1  0
 28 29  1  0
 29 30  2  0
 29 31  1  0
 26  2  1  0
 22  7  2  0
 20 10  1  0
M  END
$$$$
