
     RDKit          3D

 35 37  0  0  0  0  0  0  0  0999 V2000
  -12.7233   21.4376  -43.9189 C   0  0  0  0  0  0  0  0  0  0  0  0
  -13.5242   21.8418  -45.1353 C   0  0  0  0  0  0  0  0  0  0  0  0
  -12.5300   22.2166  -46.2233 C   0  0  0  0  0  0  0  0  0  0  0  0
  -14.6075   20.4954  -45.6790 S   0  0  0  0  0  0  0  0  0  0  0  0
  -15.7617   20.1360  -44.3510 C   0  0  0  0  0  0  0  0  0  0  0  0
  -17.0459   19.7481  -44.6506 C   0  0  0  0  0  0  0  0  0  0  0  0
  -17.9471   19.4671  -43.6505 C   0  0  0  0  0  0  0  0  0  0  0  0
  -17.6042   19.5614  -42.2980 C   0  0  0  0  0  0  0  0  0  0  0  0
  -18.6166   19.2465  -41.2627 C   0  0  0  0  0  0  0  0  0  0  0  0
  -18.0182   19.3623  -39.8638 C   0  0  0  0  0  0  0  0  0  0  0  0
  -19.0082   19.0562  -38.8515 N   0  0  0  0  0  0  0  0  0  0  0  0
  -18.6043   19.1083  -37.4654 C   0  0  0  0  0  0  0  0  0  0  0  0
  -17.5564   18.0171  -37.2858 C   0  0  0  0  0  0  0  0  0  0  0  0
  -16.1867   18.7147  -37.3665 C   0  0  0  0  0  0  0  0  0  0  0  0
  -15.1455   17.9176  -36.6352 C   0  0  0  0  0  0  0  0  0  0  0  0
  -14.5929   16.8544  -37.5096 C   0  0  0  0  0  0  0  0  0  0  0  0
  -13.5887   17.4141  -38.5192 C   0  0  0  0  0  0  0  0  0  0  0  0
  -12.9451   16.2222  -39.1928 C   0  0  0  0  0  0  0  0  0  0  0  0
  -13.7623   14.9614  -39.0188 C   0  0  0  0  0  0  0  0  0  0  0  0
  -13.8832   14.5466  -37.5860 C   0  0  0  0  0  0  0  0  0  0  0  0
  -13.8222   15.8144  -36.7314 C   0  0  0  0  0  0  0  0  0  0  0  0
  -20.3448   18.7095  -39.1614 C   0  0  0  0  0  0  0  0  0  0  0  0
  -20.8098   19.0401  -40.2777 O   0  0  0  0  0  0  0  0  0  0  0  0
  -21.1593   17.9974  -38.2302 N   0  0  0  0  0  0  0  0  0  0  0  0
  -22.5205   17.7156  -38.6040 C   0  0  0  0  0  0  0  0  0  0  0  0
  -23.4515   18.8470  -38.2199 C   0  0  0  0  0  0  0  0  0  0  0  0
  -24.8080   18.5131  -38.8227 C   0  0  0  0  0  0  0  0  0  0  0  0
  -25.3140   17.1778  -38.3419 C   0  0  0  0  0  0  0  0  0  0  0  0
  -24.3168   16.0728  -38.4963 C   0  0  0  0  0  0  0  0  0  0  0  0
  -23.0179   16.4855  -37.8377 C   0  0  0  0  0  0  0  0  0  0  0  0
  -16.3125   19.9517  -42.0184 C   0  0  0  0  0  0  0  0  0  0  0  0
  -15.4052   20.2346  -43.0175 C   0  0  0  0  0  0  0  0  0  0  0  0
  -14.3834   23.0260  -44.8399 C   0  0  0  0  0  0  0  0  0  0  0  0
  -15.4102   22.8831  -44.1402 O   0  0  0  0  0  0  0  0  0  0  0  0
  -14.0768   24.2879  -45.3200 O   0  0  0  0  0  0  0  0  0  0  0  0
  1  2  1  0
  2  3  1  0
  2  4  1  0
  4  5  1  0
  5  6  2  0
  6  7  1  0
  7  8  2  0
  8  9  1  0
  9 10  1  0
 10 11  1  0
 11 12  1  0
 12 13  1  0
 13 14  1  0
 14 15  1  0
 15 16  1  0
 16 17  1  0
 17 18  1  0
 18 19  1  0
 19 20  1  0
 20 21  1  0
 11 22  1  0
 22 23  2  0
 22 24  1  0
 24 25  1  0
 25 26  1  0
 26 27  1  0
 27 28  1  0
 28 29  1  0
 29 30  1  0
  8 31  1  0
 31 32  2  0
  2 33  1  0
 33 34  2  0
 33 35  1  0
 32  5  1  0
 21 16  1  0
 30 25  1  0
M  END
$$$$
