
     RDKit          3D

 28 31  0  0  0  0  0  0  0  0999 V2000
  -11.2632   45.7941  -18.6007 N   0  0  0  0  0  0  0  0  0  0  0  0
  -12.4938   45.2822  -19.0580 C   0  0  0  0  0  0  0  0  0  0  0  0
  -12.6048   44.0123  -19.5831 C   0  0  0  0  0  0  0  0  0  0  0  0
  -13.8120   43.5177  -20.0287 C   0  0  0  0  0  0  0  0  0  0  0  0
  -14.9651   44.2850  -19.9641 C   0  0  0  0  0  0  0  0  0  0  0  0
  -16.2675   43.7517  -20.4447 C   0  0  0  0  0  0  0  0  0  0  0  0
  -16.5793   42.5282  -19.5954 C   0  0  0  0  0  0  0  0  0  0  0  0
  -17.8154   42.6626  -18.8911 N   0  0  0  0  0  0  0  0  0  0  0  0
  -18.7550   41.6002  -18.9359 C   0  0  0  0  0  0  0  0  0  0  0  0
  -19.7793   41.5180  -18.0688 N   0  0  0  0  0  0  0  0  0  0  0  0
  -20.6884   40.5268  -18.0807 C   0  0  0  0  0  0  0  0  0  0  0  0
  -20.5714   39.5681  -19.0040 N   0  0  0  0  0  0  0  0  0  0  0  0
  -19.5735   39.5739  -19.9120 C   0  0  0  0  0  0  0  0  0  0  0  0
  -18.6644   40.5831  -19.8847 C   0  0  0  0  0  0  0  0  0  0  0  0
  -17.7900   40.3740  -20.8627 N   0  0  0  0  0  0  0  0  0  0  0  0
  -18.1567   39.2424  -21.4905 C   0  0  0  0  0  0  0  0  0  0  0  0
  -19.2540   38.7262  -20.9260 N   0  0  0  0  0  0  0  0  0  0  0  0
  -20.0139   37.5531  -21.2294 C   0  0  2  0  0  0  0  0  0  0  0  0
  -19.2381   36.5456  -21.8329 O   0  0  0  0  0  0  0  0  0  0  0  0
  -20.2655   35.6922  -22.2913 C   0  0  2  0  0  0  0  0  0  0  0  0
  -19.6936   34.5654  -23.1237 C   0  0  0  0  0  0  0  0  0  0  0  0
  -18.7170   35.1185  -23.9496 O   0  0  0  0  0  0  0  0  0  0  0  0
  -21.0649   36.6552  -23.1430 C   0  0  1  0  0  0  0  0  0  0  0  0
  -22.3595   36.1855  -23.3415 O   0  0  0  0  0  0  0  0  0  0  0  0
  -21.0576   37.9082  -22.2682 C   0  0  1  0  0  0  0  0  0  0  0  0
  -22.2741   38.0944  -21.6412 O   0  0  0  0  0  0  0  0  0  0  0  0
  -14.8710   45.5575  -19.4414 C   0  0  0  0  0  0  0  0  0  0  0  0
  -13.6555   46.0476  -18.9959 C   0  0  0  0  0  0  0  0  0  0  0  0
  1  2  1  0
  2  3  2  0
  3  4  1  0
  4  5  2  0
  5  6  1  0
  6  7  1  0
  7  8  1  0
  8  9  1  0
  9 10  2  0
 10 11  1  0
 11 12  2  0
 12 13  1  0
 13 14  2  0
 14 15  1  0
 15 16  2  0
 16 17  1  0
 18 17  1  6
 18 19  1  0
 19 20  1  0
 20 21  1  6
 21 22  1  0
 20 23  1  0
 23 24  1  1
 23 25  1  0
 25 26  1  1
  5 27  1  0
 27 28  2  0
 28  2  1  0
 14  9  1  0
 25 18  1  0
 17 13  1  0
M  END
$$$$
