
     RDKit          3D

 12 13  0  0  0  0  0  0  0  0999 V2000
  -16.6482   42.6269  -20.5771 O   0  0  0  0  0  0  0  0  0  0  0  0
  -17.5000   41.7343  -20.2177 C   0  0  0  0  0  0  0  0  0  0  0  0
  -17.9436   41.6643  -18.8965 N   0  0  0  0  0  0  0  0  0  0  0  0
  -19.0595   40.3530  -18.8332 S   0  0  0  0  0  6  0  0  0  0  0  0
  -18.5998   39.2552  -17.9256 O   0  0  0  0  0  0  0  0  0  0  0  0
  -20.4468   40.8308  -18.4915 O   0  0  0  0  0  0  0  0  0  0  0  0
  -18.9533   39.8910  -20.5250 C   0  0  0  0  0  0  0  0  0  0  0  0
  -19.6044   38.8758  -21.2068 C   0  0  0  0  0  0  0  0  0  0  0  0
  -19.3677   38.6903  -22.5516 C   0  0  0  0  0  0  0  0  0  0  0  0
  -18.4753   39.5461  -23.1559 C   0  0  0  0  0  0  0  0  0  0  0  0
  -17.8331   40.5543  -22.4641 C   0  0  0  0  0  0  0  0  0  0  0  0
  -18.0683   40.7501  -21.0944 C   0  0  0  0  0  0  0  0  0  0  0  0
  1  2  2  0
  2  3  1  0
  3  4  1  0
  4  5  2  0
  4  6  2  0
  4  7  1  0
  7  8  2  0
  8  9  1  0
  9 10  2  0
 10 11  1  0
 11 12  2  0
 12  2  1  0
 12  7  1  0
M  END
$$$$
