
     RDKit          3D

 40 44  0  0  0  0  0  0  0  0999 V2000
  -17.9569   -5.5567  -28.6547 C   0  0  0  0  0  0  0  0  0  0  0  0
  -17.6955   -4.2344  -29.0730 O   0  0  0  0  0  0  0  0  0  0  0  0
  -16.9574   -4.0174  -30.2136 C   0  0  0  0  0  0  0  0  0  0  0  0
  -16.0169   -4.9168  -30.6600 C   0  0  0  0  0  0  0  0  0  0  0  0
  -15.2669   -4.7079  -31.8089 C   0  0  0  0  0  0  0  0  0  0  0  0
  -14.3156   -5.6857  -32.1822 N   0  0  0  0  0  0  0  0  0  0  0  0
  -14.4009   -7.0404  -31.7329 C   0  0  0  0  0  0  0  0  0  0  0  0
  -14.4800   -8.0018  -32.9318 C   0  0  0  0  0  0  0  0  0  0  0  0
  -13.2318   -7.7283  -33.7390 C   0  0  0  0  0  0  0  0  0  0  0  0
  -13.0125   -8.7262  -34.7610 N   0  0  0  0  0  0  0  0  0  0  0  0
  -11.6692   -9.1830  -34.6970 C   0  0  0  0  0  0  0  0  0  0  0  0
  -11.2492  -10.0169  -35.8840 C   0  0  0  0  0  0  0  0  0  0  0  0
  -11.4208   -9.2199  -37.0769 N   0  0  0  0  0  0  0  0  0  0  0  0
  -10.5262   -8.1131  -37.1883 C   0  0  0  0  0  0  0  0  0  0  0  0
  -12.8141   -8.9014  -37.1981 C   0  0  0  0  0  0  0  0  0  0  0  0
  -13.3837   -8.1458  -36.0238 C   0  0  0  0  0  0  0  0  0  0  0  0
  -13.2426   -6.3361  -34.2760 C   0  0  0  0  0  0  0  0  0  0  0  0
  -13.1985   -5.3685  -33.0816 C   0  0  0  0  0  0  0  0  0  0  0  0
  -15.4942   -3.5602  -32.4977 C   0  0  0  0  0  0  0  0  0  0  0  0
  -16.4528   -2.6418  -32.0441 C   0  0  0  0  0  0  0  0  0  0  0  0
  -17.1986   -2.8247  -30.9226 C   0  0  0  0  0  0  0  0  0  0  0  0
  -18.1944   -1.9292  -30.4475 N   0  0  0  0  0  0  0  0  0  0  0  0
  -18.3609   -0.5789  -30.7545 C   0  0  0  0  0  0  0  0  0  0  0  0
  -19.4515    0.0821  -30.3161 N   0  0  0  0  0  0  0  0  0  0  0  0
  -19.6379    1.3681  -30.5581 C   0  0  0  0  0  0  0  0  0  0  0  0
  -18.7115    2.0939  -31.2779 C   0  0  0  0  0  0  0  0  0  0  0  0
  -19.0590    3.7860  -31.5878 Cl  0  0  0  0  0  0  0  0  0  0  0  0
  -17.5979    1.4512  -31.7321 C   0  0  0  0  0  0  0  0  0  0  0  0
  -16.5860    2.1439  -32.4303 N   0  0  0  0  0  0  0  0  0  0  0  0
  -15.5103    1.5112  -33.0643 C   0  0  0  0  0  0  0  0  0  0  0  0
  -14.4672    1.0849  -32.2383 C   0  0  0  0  0  0  0  0  0  0  0  0
  -13.3862    0.4865  -32.8346 C   0  0  0  0  0  0  0  0  0  0  0  0
  -13.3165    0.3061  -34.1891 C   0  0  0  0  0  0  0  0  0  0  0  0
  -14.3538    0.7345  -34.9855 C   0  0  0  0  0  0  0  0  0  0  0  0
  -15.4784    1.3518  -34.4192 C   0  0  0  0  0  0  0  0  0  0  0  0
  -16.7328    1.9091  -35.5281 P   0  0  0  0  0  5  0  0  0  0  0  0
  -18.0936    2.7712  -34.7496 C   0  0  0  0  0  0  0  0  0  0  0  0
  -15.9580    2.9798  -36.8071 C   0  0  0  0  0  0  0  0  0  0  0  0
  -17.2969    0.7306  -36.3073 O   0  0  0  0  0  0  0  0  0  0  0  0
  -17.4788    0.1264  -31.4433 N   0  0  0  0  0  0  0  0  0  0  0  0
  1  2  1  0
  2  3  1  0
  3  4  2  0
  4  5  1  0
  5  6  1  0
  6  7  1  0
  7  8  1  0
  8  9  1  0
  9 10  1  0
 10 11  1  0
 11 12  1  0
 12 13  1  0
 13 14  1  0
 13 15  1  0
 15 16  1  0
  9 17  1  0
 17 18  1  0
  5 19  2  0
 19 20  1  0
 20 21  2  0
 21 22  1  0
 22 23  1  0
 23 24  2  0
 24 25  1  0
 25 26  2  0
 26 27  1  0
 26 28  1  0
 28 29  1  0
 29 30  1  0
 30 31  2  0
 31 32  1  0
 32 33  2  0
 33 34  1  0
 34 35  2  0
 35 36  1  0
 36 37  1  0
 36 38  1  0
 36 39  2  0
 28 40  2  0
 21  3  1  0
 40 23  1  0
 18  6  1  0
 35 30  1  0
 16 10  1  0
M  END
$$$$
