
     RDKit          3D

 20 21  0  0  0  0  0  0  0  0999 V2000
  -19.3393   16.8275  -30.8473 C   0  0  0  0  0  0  0  0  0  0  0  0
  -20.4920   17.7671  -30.8914 C   0  0  0  0  0  0  0  0  0  0  0  0
  -20.3815   19.1047  -30.5842 C   0  0  0  0  0  0  0  0  0  0  0  0
  -21.4856   19.9274  -30.6371 C   0  0  0  0  0  0  0  0  0  0  0  0
  -22.7430   19.4822  -30.9932 C   0  0  0  0  0  0  0  0  0  0  0  0
  -23.8649   20.3961  -31.0603 C   0  0  0  0  0  0  0  0  0  0  0  0
  -24.6220   20.3281  -32.0360 O   0  0  0  0  0  0  0  0  0  0  0  0
  -24.0536   21.3619  -29.9694 C   0  0  0  0  0  0  0  0  0  0  0  0
  -24.6809   22.5757  -30.1353 C   0  0  0  0  0  0  0  0  0  0  0  0
  -24.8206   23.4819  -29.0867 C   0  0  0  0  0  0  0  0  0  0  0  0
  -25.4607   24.7044  -29.2806 O   0  0  0  0  0  0  0  0  0  0  0  0
  -24.3310   23.1985  -27.8277 C   0  0  0  0  0  0  0  0  0  0  0  0
  -24.4648   24.0980  -26.7670 O   0  0  0  0  0  0  0  0  0  0  0  0
  -23.7016   21.9844  -27.6588 C   0  0  0  0  0  0  0  0  0  0  0  0
  -23.1774   21.6427  -26.3868 N   0  0  0  0  0  4  0  0  0  0  0  0
  -22.7705   22.5601  -25.6177 O   0  0  0  0  0  0  0  0  0  0  0  0
  -23.0712   20.3635  -25.9074 O   0  0  0  0  0  1  0  0  0  0  0  0
  -23.5603   21.0790  -28.6986 C   0  0  0  0  0  0  0  0  0  0  0  0
  -22.8612   18.1287  -31.3054 C   0  0  0  0  0  0  0  0  0  0  0  0
  -21.7595   17.3027  -31.2526 C   0  0  0  0  0  0  0  0  0  0  0  0
  1  2  1  0
  2  3  2  0
  3  4  1  0
  4  5  2  0
  5  6  1  0
  6  7  2  0
  6  8  1  0
  8  9  2  0
  9 10  1  0
 10 11  1  0
 10 12  2  0
 12 13  1  0
 12 14  1  0
 14 15  1  0
 15 16  2  0
 15 17  1  0
 14 18  2  0
  5 19  1  0
 19 20  2  0
 20  2  1  0
 18  8  1  0
M  CHG  2  15   1  17  -1
M  END
$$$$
