
     RDKit          3D

 37 40  0  0  0  0  0  0  0  0999 V2000
  -18.9204   42.3811  -18.0594 C   0  0  0  0  0  0  0  0  0  0  0  0
  -17.8002   41.8060  -18.7061 O   0  0  0  0  0  0  0  0  0  0  0  0
  -17.9230   41.4779  -20.0512 C   0  0  0  0  0  0  0  0  0  0  0  0
  -18.7581   40.4509  -20.4796 C   0  0  0  0  0  0  0  0  0  0  0  0
  -18.9090   40.0949  -21.8010 C   0  0  0  0  0  0  0  0  0  0  0  0
  -19.7937   39.0432  -22.2758 C   0  0  0  0  0  0  0  0  0  0  0  0
  -20.6964   39.0992  -23.2789 N   0  0  0  0  0  0  0  0  0  0  0  0
  -21.3220   37.9453  -23.3938 N   0  0  0  0  0  0  0  0  0  0  0  0
  -22.3757   37.5826  -24.3584 C   0  0  0  0  0  0  0  0  0  0  0  0
  -23.6411   38.1595  -23.8391 C   0  0  0  0  0  0  0  0  0  0  0  0
  -24.8533   37.5354  -24.2039 N   0  0  0  0  0  0  0  0  0  0  0  0
  -25.7783   38.4064  -24.8390 C   0  0  0  0  0  0  0  0  0  0  0  0
  -26.2633   37.9479  -26.1816 C   0  0  0  0  0  0  0  0  0  0  0  0
  -25.2276   36.9957  -26.7379 C   0  0  0  0  0  0  0  0  0  0  0  0
  -25.4638   36.7283  -28.1206 N   0  0  0  0  0  0  0  0  0  0  0  0
  -25.2826   37.8555  -28.9803 C   0  0  0  0  0  0  0  0  0  0  0  0
  -26.7505   36.1375  -28.3425 C   0  0  0  0  0  0  0  0  0  0  0  0
  -25.2849   35.7651  -25.8601 C   0  0  0  0  0  0  0  0  0  0  0  0
  -24.9193   36.1786  -24.4618 C   0  0  0  0  0  0  0  0  0  0  0  0
  -20.8648   37.0813  -22.4780 C   0  0  0  0  0  0  0  0  0  0  0  0
  -21.1201   35.8205  -22.1285 N   0  0  0  0  0  0  0  0  0  0  0  0
  -20.5090   35.1775  -21.1402 C   0  0  0  0  0  0  0  0  0  0  0  0
  -19.5758   35.8009  -20.4304 N   0  0  0  0  0  0  0  0  0  0  0  0
  -19.2756   37.0742  -20.7375 C   0  0  0  0  0  0  0  0  0  0  0  0
  -18.2881   37.6984  -19.9288 N   0  0  0  0  0  0  0  0  0  0  0  0
  -19.8854   37.7749  -21.7554 C   0  0  0  0  0  0  0  0  0  0  0  0
  -18.1561   40.8399  -22.7174 C   0  0  0  0  0  0  0  0  0  0  0  0
  -17.3279   41.8565  -22.3012 C   0  0  0  0  0  0  0  0  0  0  0  0
  -17.2026   42.1860  -20.9679 C   0  0  0  0  0  0  0  0  0  0  0  0
  -16.3226   43.2530  -20.6201 N   0  0  0  0  0  0  0  0  0  0  0  0
  -16.0640   44.3400  -21.5058 C   0  0  0  0  0  0  0  0  0  0  0  0
  -16.4598   44.2111  -22.6848 O   0  0  0  0  0  0  0  0  0  0  0  0
  -15.4195   45.4945  -21.1456 O   0  0  0  0  0  0  0  0  0  0  0  0
  -15.0129   46.5026  -22.0365 C   0  0  0  0  0  0  0  0  0  0  0  0
  -14.5974   45.8444  -23.3572 C   0  0  0  0  0  0  0  0  0  0  0  0
  -13.8554   47.3093  -21.5637 C   0  0  0  0  0  0  0  0  0  0  0  0
  -16.1827   47.4083  -22.3025 C   0  0  0  0  0  0  0  0  0  0  0  0
  1  2  1  0
  2  3  1  0
  3  4  2  0
  4  5  1  0
  5  6  1  0
  6  7  2  0
  7  8  1  0
  8  9  1  0
  9 10  1  0
 10 11  1  0
 11 12  1  0
 12 13  1  0
 13 14  1  0
 14 15  1  0
 15 16  1  0
 15 17  1  0
 14 18  1  0
 18 19  1  0
  8 20  1  0
 20 21  2  0
 21 22  1  0
 22 23  2  0
 23 24  1  0
 24 25  1  0
 24 26  2  0
  5 27  2  0
 27 28  1  0
 28 29  2  0
 29 30  1  0
 30 31  1  0
 31 32  2  0
 31 33  1  0
 33 34  1  0
 34 35  1  0
 34 36  1  0
 34 37  1  0
 29  3  1  0
 26  6  1  0
 19 11  1  0
 26 20  1  0
M  END
$$$$
