
     RDKit          3D

 14 13  0  0  0  0  0  0  0  0999 V2000
   -1.3441   17.7839  -23.9165 C   0  0  0  0  0  0  0  0  0  0  0  0
   -1.0087   18.3376  -22.5762 C   0  0  0  0  0  0  0  0  0  0  0  0
    0.4733   18.4596  -22.3206 C   0  0  0  0  0  0  0  0  0  0  0  0
    0.8020   19.3698  -21.1871 C   0  0  0  0  0  0  0  0  0  0  0  0
    2.2813   19.5101  -21.0181 C   0  0  0  0  0  0  0  0  0  0  0  0
    2.7017   20.0251  -19.6825 C   0  0  0  0  0  0  0  0  0  0  0  0
    3.4678   21.3337  -19.7755 C   0  0  0  0  0  0  0  0  0  0  0  0
    2.9343   22.2095  -18.6687 C   0  0  0  0  0  0  0  0  0  0  0  0
    3.9789   22.8117  -17.7871 C   0  0  0  0  0  0  0  0  0  0  0  0
    4.1680   24.2738  -18.1005 C   0  0  0  0  0  0  0  0  0  0  0  0
    3.9035   25.1914  -16.9520 C   0  0  0  0  0  0  0  0  0  0  0  0
    5.0922   25.6584  -16.2464 C   0  0  0  0  0  0  0  0  0  0  0  0
    5.2084   26.8598  -15.9277 O   0  0  0  0  0  0  0  0  0  0  0  0
    6.1001   24.7710  -15.9255 O   0  0  0  0  0  0  0  0  0  0  0  0
  1  2  1  0
  2  3  1  0
  3  4  1  0
  4  5  1  0
  5  6  1  0
  6  7  1  0
  7  8  1  0
  8  9  1  0
  9 10  1  0
 10 11  1  0
 11 12  1  0
 12 13  2  0
 12 14  1  0
M  END
$$$$
