
     RDKit          3D

 31 33  0  0  0  0  0  0  0  0999 V2000
  -25.6718   12.4022  -22.2026 C   0  0  0  0  0  0  0  0  0  0  0  0
  -26.8759   11.6561  -21.7051 C   0  0  0  0  0  0  0  0  0  0  0  0
  -26.4889   10.8582  -20.4734 C   0  0  0  0  0  0  0  0  0  0  0  0
  -27.9978   12.5494  -21.4434 N   0  0  0  0  0  0  0  0  0  0  0  0
  -27.8036   13.9586  -21.4498 C   0  0  0  0  0  0  0  0  0  0  0  0
  -28.8589   14.6354  -22.2951 C   0  0  0  0  0  0  0  0  0  0  0  0
  -28.7264   16.1396  -22.1981 C   0  0  0  0  0  0  0  0  0  0  0  0
  -29.3346   16.8103  -23.3834 C   0  0  0  0  0  0  0  0  0  0  0  0
  -28.7391   18.0278  -23.6235 O   0  0  0  0  0  0  0  0  0  0  0  0
  -28.6266   18.3935  -24.9345 C   0  0  0  0  0  0  0  0  0  0  0  0
  -29.1495   19.7955  -25.0731 C   0  0  0  0  0  0  0  0  0  0  0  0
  -28.5661   20.7217  -24.4863 O   0  0  0  0  0  0  0  0  0  0  0  0
  -30.2660   20.0640  -25.8403 O   0  0  0  0  0  0  0  0  0  0  0  0
  -29.2326   11.9547  -21.1797 C   0  0  0  0  0  0  0  0  0  0  0  0
  -29.8094   11.1021  -22.0742 C   0  0  0  0  0  0  0  0  0  0  0  0
  -30.9935   10.5380  -21.7478 N   0  0  0  0  0  0  0  0  0  0  0  0
  -31.6267   10.7818  -20.5784 C   0  0  0  0  0  0  0  0  0  0  0  0
  -32.8537   10.1454  -20.1947 C   0  0  0  0  0  0  0  0  0  0  0  0
  -32.8674    8.7954  -19.9195 C   0  0  0  0  0  0  0  0  0  0  0  0
  -34.0588    8.1580  -19.5458 C   0  0  0  0  0  0  0  0  0  0  0  0
  -35.2271    8.8708  -19.4505 C   0  0  0  0  0  0  0  0  0  0  0  0
  -35.2151   10.2151  -19.7252 C   0  0  0  0  0  0  0  0  0  0  0  0
  -34.0208   10.8279  -20.0935 C   0  0  0  0  0  0  0  0  0  0  0  0
  -31.0428   11.6465  -19.6766 C   0  0  0  0  0  0  0  0  0  0  0  0
  -31.7238   11.9188  -18.4344 C   0  0  0  0  0  0  0  0  0  0  0  0
  -31.9373   10.9755  -17.4574 C   0  0  0  0  0  0  0  0  0  0  0  0
  -32.5893   11.2071  -16.2816 C   0  0  0  0  0  0  0  0  0  0  0  0
  -33.0805   12.4868  -16.0350 C   0  0  0  0  0  0  0  0  0  0  0  0
  -32.8866   13.4496  -16.9843 C   0  0  0  0  0  0  0  0  0  0  0  0
  -32.2204   13.1784  -18.1664 C   0  0  0  0  0  0  0  0  0  0  0  0
  -29.8666   12.2039  -20.0058 N   0  0  0  0  0  0  0  0  0  0  0  0
  1  2  1  0
  2  3  1  0
  2  4  1  0
  4  5  1  0
  5  6  1  0
  6  7  1  0
  7  8  1  0
  8  9  1  0
  9 10  1  0
 10 11  1  0
 11 12  2  0
 11 13  1  0
  4 14  1  0
 14 15  2  0
 15 16  1  0
 16 17  2  0
 17 18  1  0
 18 19  2  0
 19 20  1  0
 20 21  2  0
 21 22  1  0
 22 23  2  0
 17 24  1  0
 24 25  1  0
 25 26  2  0
 26 27  1  0
 27 28  2  0
 28 29  1  0
 29 30  2  0
 24 31  2  0
 31 14  1  0
 23 18  1  0
 30 25  1  0
M  END
$$$$
