
     RDKit          3D

 27 28  0  0  0  0  0  0  0  0999 V2000
  -14.5566   22.3951  -45.6019 C   0  0  0  0  0  0  0  0  0  0  0  0
  -15.0830   23.4022  -44.7655 O   0  0  0  0  0  0  0  0  0  0  0  0
  -16.3431   23.2971  -44.2123 C   0  0  0  0  0  0  0  0  0  0  0  0
  -16.6737   23.8962  -43.0252 C   0  0  0  0  0  0  0  0  0  0  0  0
  -17.9558   23.7627  -42.5069 C   0  0  0  0  0  0  0  0  0  0  0  0
  -18.2585   24.4197  -41.2412 C   0  0  0  0  0  0  0  0  0  0  0  0
  -18.9780   23.8975  -40.2643 C   0  0  0  0  0  0  0  0  0  0  0  0
  -19.0979   24.5833  -38.9609 C   0  0  0  0  0  0  0  0  0  0  0  0
  -19.7538   25.6530  -38.9561 O   0  0  0  0  0  0  0  0  0  0  0  0
  -18.4682   24.0143  -37.7485 C   0  0  0  0  0  0  0  0  0  0  0  0
  -19.3282   23.0705  -37.0323 C   0  0  0  0  0  0  0  0  0  0  0  0
  -20.2644   23.4759  -36.3241 O   0  0  0  0  0  0  0  0  0  0  0  0
  -19.0756   21.6543  -37.1580 C   0  0  0  0  0  0  0  0  0  0  0  0
  -19.4716   20.7690  -36.2486 C   0  0  0  0  0  0  0  0  0  0  0  0
  -19.3006   19.3299  -36.3529 C   0  0  0  0  0  0  0  0  0  0  0  0
  -18.0940   18.6775  -36.3628 C   0  0  0  0  0  0  0  0  0  0  0  0
  -17.9846   17.2884  -36.4646 C   0  0  0  0  0  0  0  0  0  0  0  0
  -19.1389   16.5424  -36.5589 C   0  0  0  0  0  0  0  0  0  0  0  0
  -19.0795   15.1596  -36.6618 O   0  0  0  0  0  0  0  0  0  0  0  0
  -20.3695   17.1709  -36.5515 C   0  0  0  0  0  0  0  0  0  0  0  0
  -21.5022   16.3745  -36.6489 O   0  0  0  0  0  0  0  0  0  0  0  0
  -21.9956   16.0669  -37.9359 C   0  0  0  0  0  0  0  0  0  0  0  0
  -20.4386   18.5473  -36.4493 C   0  0  0  0  0  0  0  0  0  0  0  0
  -18.8649   23.0176  -43.2209 C   0  0  0  0  0  0  0  0  0  0  0  0
  -18.5404   22.3998  -44.4355 C   0  0  0  0  0  0  0  0  0  0  0  0
  -17.2658   22.5393  -44.9394 C   0  0  0  0  0  0  0  0  0  0  0  0
  -16.8914   21.9477  -46.1390 O   0  0  0  0  0  0  0  0  0  0  0  0
  1  2  1  0
  2  3  1  0
  3  4  2  0
  4  5  1  0
  5  6  1  0
  6  7  2  0
  7  8  1  0
  8  9  2  0
  8 10  1  0
 10 11  1  0
 11 12  2  0
 11 13  1  0
 13 14  2  0
 14 15  1  0
 15 16  2  0
 16 17  1  0
 17 18  2  0
 18 19  1  0
 18 20  1  0
 20 21  1  0
 21 22  1  0
 20 23  2  0
  5 24  2  0
 24 25  1  0
 25 26  2  0
 26 27  1  0
 26  3  1  0
 23 15  1  0
M  END
$$$$
