
     RDKit          3D

 27 27  0  0  0  0  0  0  0  0999 V2000
  -13.3318   47.6959  -17.8952 C   0  0  0  0  0  0  0  0  0  0  0  0
  -14.3046   47.0220  -18.8009 C   0  0  0  0  0  0  0  0  0  0  0  0
  -13.9202   46.0758  -19.6699 N   0  0  0  0  0  0  0  0  0  0  0  0
  -14.7643   45.4521  -20.4964 C   0  0  0  0  0  0  0  0  0  0  0  0
  -16.1395   45.7530  -20.5091 C   0  0  0  0  0  0  0  0  0  0  0  0
  -17.0392   45.0596  -21.4231 C   0  0  0  0  0  0  0  0  0  0  0  0
  -17.8477   44.0119  -20.7186 N   0  0  0  0  0  4  0  0  0  0  0  0
  -19.0855   44.3165  -20.2519 C   0  0  0  0  0  0  0  0  0  0  0  0
  -19.6253   42.7562  -19.5489 S   0  0  0  0  0  0  0  0  0  0  0  0
  -18.1940   41.8642  -19.9316 C   0  0  0  0  0  0  0  0  0  0  0  0
  -17.9917   40.4272  -19.6404 C   0  0  0  0  0  0  0  0  0  0  0  0
  -18.2800   39.5328  -20.7889 C   0  0  0  0  0  0  0  0  0  0  0  0
  -18.0766   38.1846  -20.4938 O   0  0  0  0  0  0  0  0  0  0  0  0
  -18.3728   37.1914  -21.8075 P   0  0  0  0  0  5  0  0  0  0  0  0
  -17.1023   36.7697  -22.5113 O   0  0  0  0  0  0  0  0  0  0  0  0
  -19.2718   38.1012  -22.9435 O   0  0  0  0  0  0  0  0  0  0  0  0
  -19.2304   35.8003  -21.4207 O   0  0  0  0  0  0  0  0  0  0  0  0
  -20.4458   35.4999  -22.5653 P   0  0  0  0  0  5  0  0  0  0  0  0
  -21.1896   36.8003  -22.7603 O   0  0  0  0  0  0  0  0  0  0  0  0
  -19.8234   34.9011  -24.0021 O   0  0  0  0  0  0  0  0  0  0  0  0
  -21.4874   34.3435  -21.8771 O   0  0  0  0  0  0  0  0  0  0  0  0
  -17.4091   42.7879  -20.5554 C   0  0  0  0  0  0  0  0  0  0  0  0
  -16.0230   42.3284  -21.0131 C   0  0  0  0  0  0  0  0  0  0  0  0
  -16.5183   46.7233  -19.6156 C   0  0  0  0  0  0  0  0  0  0  0  0
  -17.8800   47.1099  -19.5672 N   0  0  0  0  0  0  0  0  0  0  0  0
  -15.6080   47.3285  -18.7923 N   0  0  0  0  0  0  0  0  0  0  0  0
  -17.3582   42.1299  -20.7089 Cl  0  0  0  0  0 15  0  0  0  0  0  0
  1  2  1  0
  2  3  2  0
  3  4  1  0
  4  5  2  0
  5  6  1  0
  6  7  1  0
  7  8  2  0
  8  9  1  0
  9 10  1  0
 10 11  1  0
 11 12  1  0
 12 13  1  0
 13 14  1  0
 14 15  2  0
 14 16  1  0
 14 17  1  0
 17 18  1  0
 18 19  2  0
 18 20  1  0
 18 21  1  0
 10 22  2  0
 22 23  1  0
  5 24  1  0
 24 25  1  0
 24 26  2  0
 26  2  1  0
 22  7  1  0
M  CHG  2   7   1  27  -1
M  END
$$$$
