
     RDKit          3D

 17 18  0  0  0  0  0  0  0  0999 V2000
  -14.4964   45.4663  -17.3589 C   0  0  0  0  0  0  0  0  0  0  0  0
  -15.5208   45.4527  -18.4590 C   0  0  0  0  0  0  0  0  0  0  0  0
  -15.8458   44.0244  -18.8375 C   0  0  0  0  0  0  0  0  0  0  0  0
  -16.6291   43.9724  -20.0140 O   0  0  0  0  0  0  0  0  0  0  0  0
  -16.9218   42.7112  -20.5278 C   0  0  0  0  0  0  0  0  0  0  0  0
  -16.4778   42.3336  -21.7831 C   0  0  0  0  0  0  0  0  0  0  0  0
  -16.7798   41.0802  -22.2706 C   0  0  0  0  0  0  0  0  0  0  0  0
  -17.5170   40.1691  -21.5521 C   0  0  0  0  0  0  0  0  0  0  0  0
  -17.8344   38.8135  -22.0946 C   0  0  0  0  0  0  0  0  0  0  0  0
  -19.2546   38.9911  -23.1895 S   0  0  0  0  0  0  0  0  0  0  0  0
  -20.7771   38.9645  -22.2809 C   0  0  0  0  0  0  0  0  0  0  0  0
  -21.4890   37.9105  -21.8360 N   0  0  0  0  0  0  0  0  0  0  0  0
  -22.5725   38.3198  -21.1976 N   0  0  0  0  0  0  0  0  0  0  0  0
  -22.5933   39.6790  -21.2114 C   0  0  0  0  0  0  0  0  0  0  0  0
  -21.4861   40.0497  -21.8790 N   0  0  0  0  0  0  0  0  0  0  0  0
  -17.9685   40.5240  -20.3014 C   0  0  0  0  0  0  0  0  0  0  0  0
  -17.6629   41.7771  -19.8216 C   0  0  0  0  0  0  0  0  0  0  0  0
  1  2  1  0
  2  3  1  0
  3  4  1  0
  4  5  1  0
  5  6  2  0
  6  7  1  0
  7  8  2  0
  8  9  1  0
  9 10  1  0
 10 11  1  0
 11 12  2  0
 12 13  1  0
 13 14  2  0
 14 15  1  0
  8 16  1  0
 16 17  2  0
 17  5  1  0
 15 11  1  0
M  END
$$$$
