
     RDKit          3D

 48 51  0  0  0  0  0  0  0  0999 V2000
  -24.2486   12.4235  -26.8110 N   0  0  0  0  0  0  0  0  0  0  0  0
  -25.1863   13.3690  -26.2933 C   0  0  0  0  0  0  0  0  0  0  0  0
  -24.8063   14.2909  -25.3475 C   0  0  0  0  0  0  0  0  0  0  0  0
  -23.4627   14.2835  -24.8945 N   0  0  0  0  0  0  0  0  0  0  0  0
  -23.2042   13.7673  -23.7834 N   0  0  0  0  0  0  0  0  0  0  0  0
  -24.2187   13.1917  -22.9689 C   0  0  0  0  0  0  0  0  0  0  0  0
  -24.8404   11.9999  -23.2780 C   0  0  0  0  0  0  0  0  0  0  0  0
  -25.8233   11.4536  -22.4783 C   0  0  0  0  0  0  0  0  0  0  0  0
  -26.2291   12.0927  -21.3151 C   0  0  0  0  0  0  0  0  0  0  0  0
  -27.2568   11.5547  -20.4471 C   0  0  0  0  0  0  0  0  0  0  0  0
  -28.0526   12.4213  -19.7391 C   0  0  0  0  0  0  0  0  0  0  0  0
  -29.0488   11.9424  -18.8968 C   0  0  0  0  0  0  0  0  0  0  0  0
  -29.2356   10.5843  -18.7747 C   0  0  0  0  0  0  0  0  0  0  0  0
  -30.2437   10.0624  -17.9233 N   0  0  0  0  0  0  0  0  0  0  0  0
  -31.3389   10.6972  -17.8464 N   0  0  0  0  0  0  0  0  0  0  0  0
  -32.3436   10.1480  -16.9774 C   0  0  0  0  0  0  0  0  0  0  0  0
  -32.5760    8.7945  -16.9290 C   0  0  0  0  0  0  0  0  0  0  0  0
  -33.5252    8.2210  -16.1144 C   0  0  0  0  0  0  0  0  0  0  0  0
  -33.7947    6.4952  -16.0787 S   0  0  0  0  0  6  0  0  0  0  0  0
  -33.4971    6.0067  -14.6746 O   0  0  0  0  0  0  0  0  0  0  0  0
  -32.8383    5.8352  -17.0142 O   0  0  0  0  0  0  0  0  0  0  0  0
  -35.3596    6.1318  -16.5157 O   0  0  0  0  0  1  0  0  0  0  0  0
  -34.2621    9.0645  -15.3215 C   0  0  0  0  0  0  0  0  0  0  0  0
  -35.2341    8.5852  -14.4735 C   0  0  0  0  0  0  0  0  0  0  0  0
  -35.9806    9.4221  -13.6722 C   0  0  0  0  0  0  0  0  0  0  0  0
  -35.7735   10.7856  -13.6956 C   0  0  0  0  0  0  0  0  0  0  0  0
  -34.8109   11.2878  -14.5319 C   0  0  0  0  0  0  0  0  0  0  0  0
  -34.0651   10.4423  -15.3337 C   0  0  0  0  0  0  0  0  0  0  0  0
  -33.1022   10.9667  -16.1673 C   0  0  0  0  0  0  0  0  0  0  0  0
  -32.8808   12.3646  -16.1998 N   0  0  0  0  0  0  0  0  0  0  0  0
  -28.4518    9.6939  -19.4731 C   0  0  0  0  0  0  0  0  0  0  0  0
  -27.4717   10.2059  -20.3006 C   0  0  0  0  0  0  0  0  0  0  0  0
  -25.6031   13.2849  -21.0114 C   0  0  0  0  0  0  0  0  0  0  0  0
  -24.6197   13.8298  -21.8132 C   0  0  0  0  0  0  0  0  0  0  0  0
  -25.7534   15.1778  -24.8852 C   0  0  0  0  0  0  0  0  0  0  0  0
  -27.0536   15.1671  -25.3380 C   0  0  0  0  0  0  0  0  0  0  0  0
  -28.2731   16.2819  -24.7655 S   0  0  0  0  0  6  0  0  0  0  0  0
  -29.3874   15.5129  -24.1258 O   0  0  0  0  0  0  0  0  0  0  0  0
  -27.7043   17.2179  -23.7325 O   0  0  0  0  0  0  0  0  0  0  0  0
  -28.8150   17.1508  -26.1146 O   0  0  0  0  0  1  0  0  0  0  0  0
  -27.4582   14.2430  -26.2940 C   0  0  0  0  0  0  0  0  0  0  0  0
  -28.7524   14.2097  -26.7642 C   0  0  0  0  0  0  0  0  0  0  0  0
  -29.1383   13.2903  -27.7090 C   0  0  0  0  0  0  0  0  0  0  0  0
  -28.1880   12.4038  -28.1699 C   0  0  0  0  0  0  0  0  0  0  0  0
  -26.8927   12.4335  -27.7026 C   0  0  0  0  0  0  0  0  0  0  0  0
  -26.4885   13.3601  -26.7452 C   0  0  0  0  0  0  0  0  0  0  0  0
  -29.3185   11.8117  -20.9262 Na  0  0  0  0  0 15  0  0  0  0  0  0
  -29.3185   11.8117  -20.9262 Na  0  0  0  0  0 15  0  0  0  0  0  0
  1  2  1  0
  2  3  2  0
  3  4  1  0
  4  5  2  3
  5  6  1  0
  6  7  2  0
  7  8  1  0
  8  9  2  0
  9 10  1  0
 10 11  2  0
 11 12  1  0
 12 13  2  0
 13 14  1  0
 14 15  2  3
 15 16  1  0
 16 17  2  0
 17 18  1  0
 18 19  1  0
 19 20  2  0
 19 21  2  0
 19 22  1  0
 18 23  2  0
 23 24  1  0
 24 25  2  0
 25 26  1  0
 26 27  2  0
 27 28  1  0
 28 29  2  0
 29 30  1  0
 13 31  1  0
 31 32  2  0
  9 33  1  0
 33 34  2  0
  3 35  1  0
 35 36  2  0
 36 37  1  0
 37 38  2  0
 37 39  2  0
 37 40  1  0
 36 41  1  0
 41 42  2  0
 42 43  1  0
 43 44  2  0
 44 45  1  0
 45 46  2  0
 46  2  1  0
 34  6  1  0
 46 41  1  0
 32 10  1  0
 29 16  1  0
 28 23  1  0
M  CHG  4  22  -1  40  -1  47   1  48   1
M  END
$$$$
