
     RDKit          3D

 24 25  0  0  0  0  0  0  0  0999 V2000
  -20.5761   14.4307  -30.7424 C   0  0  0  0  0  0  0  0  0  0  0  0
  -19.7734   15.4860  -30.0391 C   0  0  0  0  0  0  0  0  0  0  0  0
  -18.9590   16.2190  -31.0201 C   0  0  0  0  0  0  0  0  0  0  0  0
  -19.5746   17.2133  -31.7557 C   0  0  0  0  0  0  0  0  0  0  0  0
  -20.9958   17.4948  -31.7307 C   0  0  0  0  0  0  0  0  0  0  0  0
  -21.8526   16.8829  -31.0859 O   0  0  0  0  0  0  0  0  0  0  0  0
  -21.4808   18.5608  -32.5042 O   0  0  0  0  0  0  0  0  0  0  0  0
  -22.8626   18.8938  -32.5302 C   0  0  0  0  0  0  0  0  0  0  0  0
  -18.8005   17.9544  -32.6150 N   0  0  0  0  0  0  0  0  0  0  0  0
  -17.5003   17.7428  -32.7569 C   0  0  0  0  0  0  0  0  0  0  0  0
  -16.8585   16.7542  -32.0393 C   0  0  0  0  0  0  0  0  0  0  0  0
  -15.5997   16.3192  -32.0027 N   0  0  0  0  0  0  0  0  0  0  0  0
  -15.5174   15.2988  -31.1376 C   0  0  0  0  0  0  0  0  0  0  0  0
  -14.4449   14.5079  -30.7655 C   0  0  0  0  0  0  0  0  0  0  0  0
  -14.5815   13.4836  -29.8638 C   0  0  0  0  0  0  0  0  0  0  0  0
  -13.5011   12.6987  -29.4967 O   0  0  0  0  0  0  0  0  0  0  0  0
  -12.1873   12.8295  -29.9664 C   0  0  0  0  0  0  0  0  0  0  0  0
  -15.8466   13.2524  -29.3220 C   0  0  0  0  0  0  0  0  0  0  0  0
  -15.9426   12.2075  -28.4161 O   0  0  0  0  0  0  0  0  0  0  0  0
  -17.1940   11.9406  -27.8491 C   0  0  0  0  0  0  0  0  0  0  0  0
  -16.9326   14.0274  -29.6762 C   0  0  0  0  0  0  0  0  0  0  0  0
  -16.7604   15.0409  -30.5750 C   0  0  0  0  0  0  0  0  0  0  0  0
  -17.6204   15.9818  -31.1549 C   0  0  0  0  0  0  0  0  0  0  0  0
  -18.4042   15.4320  -30.8384 Cl  0  0  0  0  0  0  0  0  0  0  0  0
  1  2  1  0
  2  3  1  0
  3  4  2  0
  4  5  1  0
  5  6  2  0
  5  7  1  0
  7  8  1  0
  4  9  1  0
  9 10  2  0
 10 11  1  0
 11 12  1  0
 12 13  1  0
 13 14  2  0
 14 15  1  0
 15 16  1  0
 16 17  1  0
 15 18  2  0
 18 19  1  0
 19 20  1  0
 18 21  1  0
 21 22  2  0
 22 23  1  0
 23  3  1  0
 23 11  2  0
 22 13  1  0
M  END
$$$$
