
     RDKit          3D

 22 24  0  0  0  0  0  0  0  0999 V2000
  -25.5598   14.8243  -22.6836 O   0  0  0  0  0  0  0  0  0  0  0  0
  -25.8281   15.5530  -21.6755 C   0  0  0  0  0  0  0  0  0  0  0  0
  -26.7119   16.6406  -21.7837 N   0  0  0  0  0  0  0  0  0  0  0  0
  -27.6175   16.7423  -22.9079 C   0  0  0  0  0  0  0  0  0  0  0  0
  -28.4263   17.9950  -22.8147 C   0  0  0  0  0  0  0  0  0  0  0  0
  -28.1514   18.8117  -21.9011 O   0  0  0  0  0  0  0  0  0  0  0  0
  -29.4767   18.2679  -23.7237 N   0  0  0  0  0  0  0  0  0  0  0  0
  -30.3022   19.4590  -23.7197 C   0  0  0  0  0  0  0  0  0  0  0  0
  -30.5684   19.6198  -25.2220 C   0  0  0  0  0  0  0  0  0  0  0  0
  -30.9107   18.1947  -25.6025 C   0  0  0  0  0  0  0  0  0  0  0  0
  -29.8953   17.4002  -24.8048 C   0  0  0  0  0  0  0  0  0  0  0  0
  -25.1905   15.2122  -20.4382 N   0  0  0  0  0  0  0  0  0  0  0  0
  -23.9633   14.4893  -20.4665 C   0  0  0  0  0  0  0  0  0  0  0  0
  -22.9296   14.7528  -19.5912 C   0  0  0  0  0  0  0  0  0  0  0  0
  -21.7444   14.0330  -19.6407 C   0  0  0  0  0  0  0  0  0  0  0  0
  -21.5514   13.0273  -20.5645 C   0  0  0  0  0  0  0  0  0  0  0  0
  -20.3582   12.3273  -20.5890 C   0  0  0  0  0  0  0  0  0  0  0  0
  -20.1888   11.3455  -21.5019 N   0  0  0  0  0  0  0  0  0  0  0  0
  -21.1752   11.0681  -22.3639 C   0  0  0  0  0  0  0  0  0  0  0  0
  -22.3866   11.7531  -22.3655 C   0  0  0  0  0  0  0  0  0  0  0  0
  -22.5815   12.7596  -21.4421 C   0  0  0  0  0  0  0  0  0  0  0  0
  -23.7582   13.4788  -21.3882 C   0  0  0  0  0  0  0  0  0  0  0  0
  1  2  2  0
  2  3  1  0
  3  4  1  0
  4  5  1  0
  5  6  2  0
  5  7  1  0
  7  8  1  0
  8  9  1  0
  9 10  1  0
 10 11  1  0
  2 12  1  0
 12 13  1  0
 13 14  2  0
 14 15  1  0
 15 16  2  0
 16 17  1  0
 17 18  2  0
 18 19  1  0
 19 20  2  0
 20 21  1  0
 21 22  2  0
 11  7  1  0
 22 13  1  0
 21 16  1  0
M  END
$$$$
