
     RDKit          3D

 34 33  0  0  0  0  0  0  0  0999 V2000
  -27.2988   13.2787  -22.0633 N   0  0  0  0  0  0  0  0  0  0  0  0
  -27.2991   13.2908  -22.0657 N   0  0  0  0  0  0  0  0  0  0  0  0
  -27.2994   13.2524  -22.0637 N   0  0  0  0  0  0  0  0  0  0  0  0
  -27.2309   11.6785  -28.0145 O   0  0  0  0  0  0  0  0  0  0  0  0
  -27.7095   11.8254  -26.8651 C   0  0  0  0  0  0  0  0  0  0  0  0
  -29.1013   11.6531  -26.7690 O   0  0  0  0  0  0  0  0  0  0  0  0
  -26.8853   12.1520  -25.7114 C   0  0  0  0  0  0  0  0  0  0  0  0
  -27.3709   12.3105  -24.4988 C   0  0  0  0  0  0  0  0  0  0  0  0
  -26.4695   12.6418  -23.3749 C   0  0  0  0  0  0  0  0  0  0  0  0
  -26.9223   12.7460  -22.1496 C   0  0  0  0  0  0  0  0  0  0  0  0
  -26.0337   13.0860  -21.0537 C   0  0  0  0  0  0  0  0  0  0  0  0
  -25.9442   12.3056  -19.9219 C   0  0  0  0  0  0  0  0  0  0  0  0
  -25.1406   12.6387  -18.8398 C   0  0  0  0  0  0  0  0  0  0  0  0
  -24.4015   13.8114  -18.9152 C   0  0  0  0  0  0  0  0  0  0  0  0
  -23.5809   14.1992  -17.8694 O   0  0  0  0  0  0  0  0  0  0  0  0
  -24.4679   14.6091  -20.0248 C   0  0  0  0  0  0  0  0  0  0  0  0
  -23.6853   15.8272  -20.0760 C   0  0  0  0  0  0  0  0  0  0  0  0
  -22.9469   16.1647  -19.1191 O   0  0  0  0  0  0  0  0  0  0  0  0
  -23.7477   16.6487  -21.2064 O   0  0  0  0  0  0  0  0  0  0  0  0
  -25.2817   14.2358  -21.0764 C   0  0  0  0  0  0  0  0  0  0  0  0
  -28.3302   12.4582  -21.8672 C   0  0  0  0  0  0  0  0  0  0  0  0
  -28.8969   11.2747  -22.2692 C   0  0  0  0  0  0  0  0  0  0  0  0
  -30.2461   10.9888  -22.0261 C   0  0  0  0  0  0  0  0  0  0  0  0
  -31.0207   11.9175  -21.3678 C   0  0  0  0  0  0  0  0  0  0  0  0
  -32.3634   11.7291  -21.0806 O   0  0  0  0  0  0  0  0  0  0  0  0
  -30.4413   13.1069  -20.9664 C   0  0  0  0  0  0  0  0  0  0  0  0
  -31.2696   14.0839  -20.2777 C   0  0  0  0  0  0  0  0  0  0  0  0
  -32.4917   13.8788  -20.0399 O   0  0  0  0  0  0  0  0  0  0  0  0
  -30.7004   15.2780  -19.8695 O   0  0  0  0  0  0  0  0  0  0  0  0
  -29.1174   13.3822  -21.2074 C   0  0  0  0  0  0  0  0  0  0  0  0
  -25.0385   12.7946  -23.6099 C   0  0  0  0  0  0  0  0  0  0  0  0
  -24.5636   12.6358  -24.8272 C   0  0  0  0  0  0  0  0  0  0  0  0
  -25.4524   12.3086  -25.9340 C   0  0  0  0  0  0  0  0  0  0  0  0
  -24.9568   12.1619  -27.0998 O   0  0  0  0  0  0  0  0  0  0  0  0
  4  5  2  0
  5  6  1  0
  5  7  1  0
  7  8  2  0
  8  9  1  0
  9 10  2  3
 10 11  1  0
 11 12  2  0
 12 13  1  0
 13 14  2  0
 14 15  1  0
 14 16  1  0
 16 17  1  0
 17 18  2  0
 17 19  1  0
 16 20  2  0
 10 21  1  0
 21 22  2  0
 22 23  1  0
 23 24  2  0
 24 25  1  0
 24 26  1  0
 26 27  1  0
 27 28  2  0
 27 29  1  0
 26 30  2  0
  9 31  1  0
 31 32  2  0
 32 33  1  0
 33 34  2  0
 33  7  1  0
 20 11  1  0
 30 21  1  0
M  END
$$$$
