
     RDKit          3D

 31 33  0  0  0  0  0  0  0  0999 V2000
  -23.6931   16.5412  -36.0380 C   0  0  0  0  0  0  0  0  0  0  0  0
  -22.7718   17.4743  -36.1585 C   0  0  0  0  0  0  0  0  0  0  0  0
  -21.3681   17.1947  -35.9296 C   0  0  0  0  0  0  0  0  0  0  0  0
  -21.0436   16.6758  -34.8207 O   0  0  0  0  0  0  0  0  0  0  0  0
  -20.3766   17.4840  -36.9014 N   0  0  0  0  0  0  0  0  0  0  0  0
  -19.0700   17.7653  -36.3683 C   0  0  0  0  0  0  0  0  0  0  0  0
  -18.5193   19.0163  -36.5544 C   0  0  0  0  0  0  0  0  0  0  0  0
  -17.2648   19.3467  -36.0825 C   0  0  0  0  0  0  0  0  0  0  0  0
  -16.5297   18.3966  -35.3986 C   0  0  0  0  0  0  0  0  0  0  0  0
  -17.0595   17.1252  -35.1948 C   0  0  0  0  0  0  0  0  0  0  0  0
  -16.3197   16.1442  -34.4915 N   0  0  0  0  0  0  0  0  0  0  0  0
  -16.4986   15.9169  -33.1165 C   0  0  0  0  0  0  0  0  0  0  0  0
  -17.4333   16.5742  -32.3899 N   0  0  0  0  0  0  0  0  0  0  0  0
  -17.6556   16.4131  -31.0863 C   0  0  0  0  0  0  0  0  0  0  0  0
  -18.6045   17.1359  -30.3213 N   0  0  0  0  0  0  0  0  0  0  0  0
  -19.5184   18.0912  -30.7842 C   0  0  0  0  0  0  0  0  0  0  0  0
  -19.7238   19.3413  -30.2455 C   0  0  0  0  0  0  0  0  0  0  0  0
  -20.6135   20.2347  -30.7539 C   0  0  0  0  0  0  0  0  0  0  0  0
  -21.3946   19.9213  -31.8928 C   0  0  0  0  0  0  0  0  0  0  0  0
  -22.2394   20.7976  -32.3550 O   0  0  0  0  0  0  0  0  0  0  0  0
  -23.2959   21.5913  -32.2682 C   0  0  0  0  0  0  0  0  0  0  0  0
  -23.3477   22.8628  -33.0729 C   0  0  0  0  0  0  0  0  0  0  0  0
  -24.5320   23.5627  -33.0118 O   0  0  0  0  0  0  0  0  0  0  0  0
  -24.4226   24.6790  -33.8694 C   0  0  0  0  0  0  0  0  0  0  0  0
  -21.1952   18.6591  -32.4476 C   0  0  0  0  0  0  0  0  0  0  0  0
  -20.2913   17.7834  -31.9090 C   0  0  0  0  0  0  0  0  0  0  0  0
  -16.8594   15.4978  -30.4382 N   0  0  0  0  0  0  0  0  0  0  0  0
  -15.9207   14.8141  -31.0815 C   0  0  0  0  0  0  0  0  0  0  0  0
  -15.7185   15.0076  -32.4335 C   0  0  0  0  0  0  0  0  0  0  0  0
  -14.7524   14.3245  -33.0876 F   0  0  0  0  0  0  0  0  0  0  0  0
  -18.3395   16.8237  -35.6895 C   0  0  0  0  0  0  0  0  0  0  0  0
  1  2  2  0
  2  3  1  0
  3  4  2  0
  3  5  1  0
  5  6  1  0
  6  7  2  0
  7  8  1  0
  8  9  2  0
  9 10  1  0
 10 11  1  0
 11 12  1  0
 12 13  2  0
 13 14  1  0
 14 15  1  0
 15 16  1  0
 16 17  2  0
 17 18  1  0
 18 19  2  0
 19 20  1  0
 20 21  1  0
 21 22  1  0
 22 23  1  0
 23 24  1  0
 19 25  1  0
 25 26  2  0
 14 27  2  0
 27 28  1  0
 28 29  2  0
 29 30  1  0
 10 31  2  0
 31  6  1  0
 29 12  1  0
 26 16  1  0
M  END
$$$$
