
     RDKit          3D

 31 34  0  0  0  0  0  0  0  0999 V2000
  -20.4265   48.9587  -22.9824 C   0  0  0  0  0  0  0  0  0  0  0  0
  -19.2708   48.2530  -22.3937 C   0  0  0  0  0  0  0  0  0  0  0  0
  -18.1259   48.8344  -22.5985 O   0  0  0  0  0  0  0  0  0  0  0  0
  -19.2551   47.0816  -21.6669 N   0  0  0  0  0  0  0  0  0  0  0  0
  -18.2552   46.8587  -20.6089 C   0  0  0  0  0  0  0  0  0  0  0  0
  -17.7797   47.9698  -19.9621 C   0  0  0  0  0  0  0  0  0  0  0  0
  -16.8114   47.7958  -18.9504 C   0  0  0  0  0  0  0  0  0  0  0  0
  -16.3818   46.5220  -18.6499 C   0  0  0  0  0  0  0  0  0  0  0  0
  -15.3731   46.3838  -17.5918 C   0  0  0  0  0  0  0  0  0  0  0  0
  -15.6404   46.7813  -16.3109 C   0  0  0  0  0  0  0  0  0  0  0  0
  -14.7111   46.6589  -15.3120 C   0  0  0  0  0  0  0  0  0  0  0  0
  -13.4763   46.1185  -15.6197 C   0  0  0  0  0  0  0  0  0  0  0  0
  -12.4870   45.9914  -14.5411 C   0  0  0  0  0  0  0  0  0  0  0  0
  -12.8258   46.3777  -13.3953 O   0  0  0  0  0  0  0  0  0  0  0  0
  -11.2360   45.4681  -14.7800 O   0  0  0  0  0  0  0  0  0  0  0  0
  -13.1948   45.7143  -16.9058 C   0  0  0  0  0  0  0  0  0  0  0  0
  -14.1466   45.8479  -17.8937 C   0  0  0  0  0  0  0  0  0  0  0  0
  -16.8965   45.4408  -19.3326 C   0  0  0  0  0  0  0  0  0  0  0  0
  -17.8449   45.5764  -20.3280 C   0  0  0  0  0  0  0  0  0  0  0  0
  -18.4149   44.4397  -21.0346 C   0  0  2  0  0  0  0  0  0  0  0  0
  -17.5146   43.3205  -21.1788 N   0  0  0  0  0  0  0  0  0  0  0  0
  -17.9244   41.9666  -21.1784 C   0  0  0  0  0  0  0  0  0  0  0  0
  -17.1635   40.9732  -21.7436 C   0  0  0  0  0  0  0  0  0  0  0  0
  -17.5791   39.6377  -21.7437 C   0  0  0  0  0  0  0  0  0  0  0  0
  -18.7770   39.2931  -21.1676 C   0  0  0  0  0  0  0  0  0  0  0  0
  -19.2742   37.6167  -21.1809 Cl  0  0  0  0  0  0  0  0  0  0  0  0
  -19.5536   40.2747  -20.5958 C   0  0  0  0  0  0  0  0  0  0  0  0
  -19.1189   41.5823  -20.6104 C   0  0  0  0  0  0  0  0  0  0  0  0
  -19.1061   44.8319  -22.2830 C   0  0  0  0  0  0  0  0  0  0  0  0
  -20.1213   45.9524  -21.8867 C   0  0  2  0  0  0  0  0  0  0  0  0
  -21.1950   46.0419  -22.8867 C   0  0  0  0  0  0  0  0  0  0  0  0
  1  2  1  0
  2  3  2  0
  2  4  1  0
  4  5  1  0
  5  6  2  0
  6  7  1  0
  7  8  2  0
  8  9  1  0
  9 10  2  0
 10 11  1  0
 11 12  2  0
 12 13  1  0
 13 14  2  0
 13 15  1  0
 12 16  1  0
 16 17  2  0
  8 18  1  0
 18 19  2  0
 19 20  1  0
 20 21  1  6
 21 22  1  0
 22 23  2  0
 23 24  1  0
 24 25  2  0
 25 26  1  0
 25 27  1  0
 27 28  2  0
 20 29  1  0
 29 30  1  0
 30 31  1  6
 30  4  1  0
 19  5  1  0
 28 22  1  0
 17  9  1  0
M  END
$$$$
