
     RDKit          3D

 18 19  0  0  0  0  0  0  0  0999 V2000
  -23.5407   38.7529  -28.1360 C   0  0  0  0  0  0  0  0  0  0  0  0
  -22.1663   38.4717  -27.8998 O   0  0  0  0  0  0  0  0  0  0  0  0
  -21.7284   37.2679  -27.3905 C   0  0  0  0  0  0  0  0  0  0  0  0
  -22.5718   36.2067  -27.1303 C   0  0  0  0  0  0  0  0  0  0  0  0
  -22.1263   35.0015  -26.6192 C   0  0  0  0  0  0  0  0  0  0  0  0
  -23.0044   33.9176  -26.3560 N   0  0  0  0  0  0  0  0  0  0  0  0
  -22.7746   32.6646  -26.9901 C   0  0  0  0  0  0  0  0  0  0  0  0
  -21.6264   32.4432  -27.4371 O   0  0  0  0  0  0  0  0  0  0  0  0
  -23.8089   31.6565  -27.1316 C   0  0  0  0  0  0  0  0  0  0  0  0
  -25.1241   31.9973  -26.9117 C   0  0  0  0  0  0  0  0  0  0  0  0
  -26.1388   31.0593  -27.0380 C   0  0  0  0  0  0  0  0  0  0  0  0
  -25.7966   29.7661  -27.3920 C   0  0  0  0  0  0  0  0  0  0  0  0
  -24.4873   29.4367  -27.6085 C   0  0  0  0  0  0  0  0  0  0  0  0
  -23.5438   30.3803  -27.4735 N   0  0  0  0  0  0  0  0  0  0  0  0
  -20.7613   34.9079  -26.3751 C   0  0  0  0  0  0  0  0  0  0  0  0
  -19.8970   35.9527  -26.6260 C   0  0  0  0  0  0  0  0  0  0  0  0
  -20.3727   37.1467  -27.1377 C   0  0  0  0  0  0  0  0  0  0  0  0
  -19.2923   38.4964  -27.4674 Cl  0  0  0  0  0  0  0  0  0  0  0  0
  1  2  1  0
  2  3  1  0
  3  4  2  0
  4  5  1  0
  5  6  1  0
  6  7  1  0
  7  8  2  0
  7  9  1  0
  9 10  2  0
 10 11  1  0
 11 12  2  0
 12 13  1  0
 13 14  2  0
  5 15  2  0
 15 16  1  0
 16 17  2  0
 17 18  1  0
 17  3  1  0
 14  9  1  0
M  END
$$$$
