
     RDKit          3D

 33 37  0  0  0  0  0  0  0  0999 V2000
  -16.8174   50.5716  -18.6194 C   0  0  0  0  0  0  0  0  0  0  0  0
  -15.8310   49.4955  -18.7440 N   0  0  0  0  0  0  0  0  0  0  0  0
  -16.2137   48.1591  -18.8501 C   0  0  0  0  0  0  0  0  0  0  0  0
  -17.4586   47.9046  -18.9012 O   0  0  0  0  0  0  0  0  0  0  0  0
  -15.3308   46.9986  -18.9107 C   0  0  0  0  0  0  0  0  0  0  0  0
  -14.0100   47.0646  -18.4846 C   0  0  0  0  0  0  0  0  0  0  0  0
  -13.1738   45.9676  -18.5662 C   0  0  0  0  0  0  0  0  0  0  0  0
  -13.6192   44.7769  -19.0713 C   0  0  0  0  0  0  0  0  0  0  0  0
  -14.9230   44.6805  -19.5015 C   0  0  0  0  0  0  0  0  0  0  0  0
  -15.4134   43.5016  -20.0051 C   0  0  0  0  0  0  0  0  0  0  0  0
  -16.7481   43.3331  -20.4526 C   0  0  0  0  0  0  0  0  0  0  0  0
  -17.0617   42.1073  -20.9138 O   0  0  0  0  0  0  0  0  0  0  0  0
  -17.8432   41.0682  -20.5338 C   0  0  0  0  0  0  0  0  0  0  0  0
  -17.6808   40.6214  -19.2017 C   0  0  0  0  0  0  0  0  0  0  0  0
  -18.4219   39.5865  -18.7387 C   0  0  0  0  0  0  0  0  0  0  0  0
  -19.3268   38.9414  -19.4870 N   0  0  0  0  0  0  0  0  0  0  0  0
  -19.5298   39.3224  -20.7697 C   0  0  0  0  0  0  0  0  0  0  0  0
  -20.4561   38.6885  -21.5552 C   0  0  0  0  0  0  0  0  0  0  0  0
  -20.7154   39.0390  -22.8677 C   0  0  0  0  0  0  0  0  0  0  0  0
  -21.5807   38.4800  -23.6756 O   0  0  0  0  0  0  0  0  0  0  0  0
  -22.5798   38.4020  -24.5041 C   0  0  0  0  0  0  0  0  0  0  0  0
  -22.8762   37.0229  -25.0805 C   0  0  0  0  0  0  0  0  0  0  0  0
  -21.8066   36.2121  -25.5721 N   0  0  0  0  0  0  0  0  0  0  0  0
  -24.1206   36.3020  -24.5060 C   0  0  0  0  0  0  0  0  0  0  0  0
  -24.1543   36.8833  -25.8445 C   0  0  0  0  0  0  0  0  0  0  0  0
  -19.9483   40.1188  -23.3632 C   0  0  0  0  0  0  0  0  0  0  0  0
  -20.1779   40.5070  -24.6797 O   0  0  0  0  0  0  0  0  0  0  0  0
  -20.3119   41.8958  -24.9335 C   0  0  0  0  0  0  0  0  0  0  0  0
  -19.0318   40.7366  -22.5660 C   0  0  0  0  0  0  0  0  0  0  0  0
  -18.7789   40.3783  -21.2564 C   0  0  0  0  0  0  0  0  0  0  0  0
  -17.5309   44.4466  -20.3472 C   0  0  0  0  0  0  0  0  0  0  0  0
  -17.0606   45.6384  -19.8478 C   0  0  0  0  0  0  0  0  0  0  0  0
  -15.7706   45.7932  -19.4175 C   0  0  0  0  0  0  0  0  0  0  0  0
  1  2  1  0
  2  3  1  0
  3  4  2  0
  3  5  1  0
  5  6  2  0
  6  7  1  0
  7  8  2  0
  8  9  1  0
  9 10  2  0
 10 11  1  0
 11 12  1  0
 12 13  1  0
 13 14  2  0
 14 15  1  0
 15 16  2  0
 16 17  1  0
 17 18  2  0
 18 19  1  0
 19 20  1  0
 20 21  1  0
 21 22  1  0
 22 23  1  0
 22 24  1  0
 24 25  1  0
 19 26  2  0
 26 27  1  0
 27 28  1  0
 26 29  1  0
 29 30  2  0
 11 31  2  0
 31 32  1  0
 32 33  2  0
 33  5  1  0
 33  9  1  0
 30 13  1  0
 30 17  1  0
 25 22  1  0
M  END
$$$$
