
     RDKit          3D

 19 21  0  0  0  0  0  0  0  0999 V2000
  -23.8064   29.0524  -34.9002 O   0  0  0  0  0  0  0  0  0  0  0  0
  -24.8649   29.7506  -35.5043 C   0  0  0  0  0  0  0  0  0  0  0  0
  -24.6281   31.2045  -35.2225 C   0  0  0  0  0  0  0  0  0  0  0  0
  -25.7441   32.1032  -35.6209 C   0  0  0  0  0  0  0  0  0  0  0  0
  -27.0845   31.3834  -35.5306 C   0  0  0  0  0  0  0  0  0  0  0  0
  -26.9452   30.3711  -34.4194 C   0  0  0  0  0  0  0  0  0  0  0  0
  -26.1448   29.2178  -34.9558 C   0  0  0  0  0  0  0  0  0  0  0  0
  -26.7847   28.4415  -35.9388 N   0  0  0  0  0  0  0  0  0  0  0  0
  -26.3861   27.0538  -35.8631 C   0  0  0  0  0  0  0  0  0  0  0  0
  -26.7023   26.4203  -37.1929 C   0  0  0  0  0  0  0  0  0  0  0  0
  -28.1957   26.4960  -37.4386 C   0  0  0  0  0  0  0  0  0  0  0  0
  -28.8140   25.1561  -37.4980 C   0  0  0  0  0  0  0  0  0  0  0  0
  -29.6603   24.8573  -38.5333 C   0  0  0  0  0  0  0  0  0  0  0  0
  -30.2479   23.6125  -38.6074 C   0  0  0  0  0  0  0  0  0  0  0  0
  -30.0042   22.6442  -37.6539 C   0  0  0  0  0  0  0  0  0  0  0  0
  -29.1602   22.9351  -36.6170 C   0  0  0  0  0  0  0  0  0  0  0  0
  -28.5639   24.1963  -36.5405 C   0  0  0  0  0  0  0  0  0  0  0  0
  -28.8734   27.2780  -36.3243 C   0  0  0  0  0  0  0  0  0  0  0  0
  -28.1655   28.6039  -36.1429 C   0  0  0  0  0  0  0  0  0  0  0  0
  1  2  1  0
  2  3  1  0
  3  4  1  0
  4  5  1  0
  5  6  1  0
  6  7  1  0
  7  8  1  0
  8  9  1  0
  9 10  1  0
 10 11  1  0
 11 12  1  0
 12 13  2  0
 13 14  1  0
 14 15  2  0
 15 16  1  0
 16 17  2  0
 11 18  1  0
 18 19  1  0
  7  2  1  0
 19  8  1  0
 17 12  1  0
M  END
$$$$
