
     RDKit          3D

 25 28  0  0  0  0  0  0  0  0999 V2000
  -20.3282   36.8589  -25.0287 O   0  0  0  0  0  0  0  0  0  0  0  0
  -21.2395   36.3247  -24.3555 C   0  0  0  0  0  0  0  0  0  0  0  0
  -21.2008   34.9511  -24.1861 O   0  0  0  0  0  0  0  0  0  0  0  0
  -22.3298   37.0710  -23.7465 C   0  0  0  0  0  0  0  0  0  0  0  0
  -22.6140   36.9951  -22.4003 C   0  0  0  0  0  0  0  0  0  0  0  0
  -23.6409   37.6962  -21.8186 C   0  0  0  0  0  0  0  0  0  0  0  0
  -24.4171   38.5057  -22.6063 C   0  0  0  0  0  0  0  0  0  0  0  0
  -24.1486   38.5921  -23.9430 C   0  0  0  0  0  0  0  0  0  0  0  0
  -23.1130   37.8921  -24.5603 C   0  0  0  0  0  0  0  0  0  0  0  0
  -22.8597   38.0115  -25.9878 C   0  0  0  0  0  0  0  0  0  0  0  0
  -22.1707   39.0588  -26.5611 C   0  0  0  0  0  0  0  0  0  0  0  0
  -21.6812   40.0616  -25.7818 C   0  0  0  0  0  0  0  0  0  0  0  0
  -20.9956   41.0987  -26.3744 C   0  0  0  0  0  0  0  0  0  0  0  0
  -20.7880   41.1540  -27.7401 C   0  0  0  0  0  0  0  0  0  0  0  0
  -20.1445   42.1458  -28.2120 O   0  0  0  0  0  0  0  0  0  0  0  0
  -21.2558   40.1733  -28.5864 C   0  0  0  0  0  0  0  0  0  0  0  0
  -21.9459   39.1228  -28.0201 C   0  0  0  0  0  0  0  0  0  0  0  0
  -22.4195   38.1604  -28.7381 O   0  0  0  0  0  0  0  0  0  0  0  0
  -23.0814   37.1480  -28.2173 C   0  0  0  0  0  0  0  0  0  0  0  0
  -23.5440   36.1772  -29.0588 C   0  0  0  0  0  0  0  0  0  0  0  0
  -24.2412   35.0966  -28.5750 C   0  0  0  0  0  0  0  0  0  0  0  0
  -24.7135   34.1036  -29.4430 O   0  0  0  0  0  0  0  0  0  0  0  0
  -24.4897   34.9664  -27.2346 C   0  0  0  0  0  0  0  0  0  0  0  0
  -24.0290   35.9374  -26.3766 C   0  0  0  0  0  0  0  0  0  0  0  0
  -23.3235   37.0359  -26.8433 C   0  0  0  0  0  0  0  0  0  0  0  0
  1  2  2  0
  2  3  1  0
  2  4  1  0
  4  5  2  0
  5  6  1  0
  6  7  2  0
  7  8  1  0
  8  9  2  0
  9 10  1  0
 10 11  2  0
 11 12  1  0
 12 13  2  0
 13 14  1  0
 14 15  2  0
 14 16  1  0
 16 17  2  0
 17 18  1  0
 18 19  1  0
 19 20  2  0
 20 21  1  0
 21 22  1  0
 21 23  2  0
 23 24  1  0
 24 25  2  0
  9  4  1  0
 25 10  1  0
 17 11  1  0
 25 19  1  0
M  END
$$$$
