
     RDKit          3D

 31 34  0  0  0  0  0  0  0  0999 V2000
  -22.6384   28.3777  -26.8950 O   0  0  0  0  0  0  0  0  0  0  0  0
  -23.4033   28.9622  -27.6750 C   0  0  0  0  0  0  0  0  0  0  0  0
  -23.3978   30.4011  -27.6851 N   0  0  0  0  0  0  0  0  0  0  0  0
  -22.3138   31.1599  -27.1861 C   0  0  0  0  0  0  0  0  0  0  0  0
  -21.7921   30.8341  -25.9575 C   0  0  0  0  0  0  0  0  0  0  0  0
  -20.7206   31.5607  -25.4229 C   0  0  0  0  0  0  0  0  0  0  0  0
  -20.1804   32.6063  -26.1201 C   0  0  0  0  0  0  0  0  0  0  0  0
  -18.8635   33.5648  -25.5213 S   0  0  0  0  0  6  0  0  0  0  0  0
  -17.5989   32.7202  -25.5723 O   0  0  0  0  0  0  0  0  0  0  0  0
  -19.0730   33.8675  -24.0599 O   0  0  0  0  0  0  0  0  0  0  0  0
  -18.6357   35.0152  -26.4058 N   0  0  0  0  0  0  0  0  0  0  0  0
  -19.6733   35.9259  -26.5697 C   0  0  0  0  0  0  0  0  0  0  0  0
  -19.7579   37.0512  -27.2952 N   0  0  0  0  0  0  0  0  0  0  0  0
  -20.8053   37.7729  -27.3222 C   0  0  0  0  0  0  0  0  0  0  0  0
  -21.9176   37.4239  -26.5950 C   0  0  0  0  0  0  0  0  0  0  0  0
  -21.3122   35.9022  -25.8306 S   0  0  0  0  0  0  0  0  0  0  0  0
  -20.7285   32.9090  -27.3551 C   0  0  0  0  0  0  0  0  0  0  0  0
  -21.7838   32.2060  -27.9001 C   0  0  0  0  0  0  0  0  0  0  0  0
  -24.3478   28.3326  -28.6236 C   0  0  0  0  0  0  0  0  0  0  0  0
  -25.6921   28.9071  -28.3632 C   0  0  0  0  0  0  0  0  0  0  0  0
  -26.6109   28.8758  -29.3897 C   0  0  0  0  0  0  0  0  0  0  0  0
  -27.8614   29.3889  -29.2039 C   0  0  0  0  0  0  0  0  0  0  0  0
  -28.1609   29.9340  -27.9566 C   0  0  0  0  0  0  0  0  0  0  0  0
  -27.2630   29.9763  -26.9204 C   0  0  0  0  0  0  0  0  0  0  0  0
  -26.0097   29.4554  -27.1259 C   0  0  0  0  0  0  0  0  0  0  0  0
  -24.3569   26.8561  -28.5724 C   0  0  0  0  0  0  0  0  0  0  0  0
  -24.1821   26.1179  -27.4241 C   0  0  0  0  0  0  0  0  0  0  0  0
  -24.1955   24.7180  -27.4385 C   0  0  0  0  0  0  0  0  0  0  0  0
  -24.3860   24.0204  -28.6130 C   0  0  0  0  0  0  0  0  0  0  0  0
  -24.5620   24.7513  -29.7679 C   0  0  0  0  0  0  0  0  0  0  0  0
  -24.5482   26.1299  -29.7506 C   0  0  0  0  0  0  0  0  0  0  0  0
  1  2  2  0
  2  3  1  0
  3  4  1  0
  4  5  2  0
  5  6  1  0
  6  7  2  0
  7  8  1  0
  8  9  2  0
  8 10  2  0
  8 11  1  0
 11 12  1  0
 12 13  2  0
 13 14  1  0
 14 15  2  0
 15 16  1  0
  7 17  1  0
 17 18  2  0
  2 19  1  0
 19 20  1  0
 20 21  2  0
 21 22  1  0
 22 23  2  0
 23 24  1  0
 24 25  2  0
 19 26  1  0
 26 27  2  0
 27 28  1  0
 28 29  2  0
 29 30  1  0
 30 31  2  0
 18  4  1  0
 25 20  1  0
 31 26  1  0
 16 12  1  0
M  END
$$$$
