
     RDKit          3D

 27 30  0  0  0  0  0  0  0  0999 V2000
  -19.6503   34.4664  -22.1710 C   0  0  0  0  0  0  0  0  0  0  0  0
  -20.8237   35.2682  -21.6617 C   0  0  0  0  0  0  0  0  0  0  0  0
  -21.6953   34.3499  -20.8413 C   0  0  0  0  0  0  0  0  0  0  0  0
  -21.5750   35.7960  -22.8696 C   0  0  0  0  0  0  0  0  0  0  0  0
  -20.8792   36.9526  -23.4833 C   0  0  0  0  0  0  0  0  0  0  0  0
  -20.8339   37.0050  -24.7043 O   0  0  0  0  0  0  0  0  0  0  0  0
  -20.2317   38.0462  -22.7249 C   0  0  0  0  0  0  0  0  0  0  0  0
  -21.1644   39.1786  -22.3028 C   0  0  0  0  0  0  0  0  0  0  0  0
  -20.2592   40.3009  -21.9362 C   0  0  0  0  0  0  0  0  0  0  0  0
  -20.1624   41.4447  -22.6241 C   0  0  0  0  0  0  0  0  0  0  0  0
  -19.2288   42.5282  -22.2331 C   0  0  0  0  0  0  0  0  0  0  0  0
  -17.9468   42.0533  -21.6164 C   0  0  0  0  0  0  0  0  0  0  0  0
  -17.0127   41.6441  -22.7353 C   0  0  0  0  0  0  0  0  0  0  0  0
  -17.3027   43.2192  -20.8967 C   0  0  0  0  0  0  0  0  0  0  0  0
  -18.1379   40.9455  -20.6232 C   0  0  0  0  0  0  0  0  0  0  0  0
  -19.4398   40.2818  -20.7289 C   0  0  0  0  0  0  0  0  0  0  0  0
  -19.8630   39.6696  -19.7153 O   0  0  0  0  0  0  0  0  0  0  0  0
  -20.9555   41.6661  -23.7213 O   0  0  0  0  0  0  0  0  0  0  0  0
  -21.8944   40.7200  -24.1413 C   0  0  0  0  0  0  0  0  0  0  0  0
  -22.6624   41.0581  -25.2704 C   0  0  0  0  0  0  0  0  0  0  0  0
  -23.6054   40.1600  -25.6962 C   0  0  0  0  0  0  0  0  0  0  0  0
  -23.7776   38.9735  -25.0242 C   0  0  0  0  0  0  0  0  0  0  0  0
  -22.9938   38.6669  -23.9021 C   0  0  0  0  0  0  0  0  0  0  0  0
  -22.0332   39.5520  -23.4533 C   0  0  0  0  0  0  0  0  0  0  0  0
  -19.5563   37.3856  -21.5818 C   0  0  0  0  0  0  0  0  0  0  0  0
  -18.4042   37.5592  -21.2476 O   0  0  0  0  0  0  0  0  0  0  0  0
  -20.3734   36.4150  -20.7734 C   0  0  0  0  0  0  0  0  0  0  0  0
  1  2  1  0
  2  3  1  0
  2  4  1  0
  4  5  1  0
  5  6  2  0
  5  7  1  0
  7  8  1  0
  8  9  1  0
  9 10  2  0
 10 11  1  0
 11 12  1  0
 12 13  1  0
 12 14  1  0
 12 15  1  0
 15 16  1  0
 16 17  2  0
 10 18  1  0
 18 19  1  0
 19 20  2  0
 20 21  1  0
 21 22  2  0
 22 23  1  0
 23 24  2  0
  7 25  1  0
 25 26  2  0
 25 27  1  0
 27  2  1  0
 24  8  1  0
 16  9  1  0
 24 19  1  0
M  END
$$$$
