
     RDKit          3D

 39 42  0  0  0  0  0  0  0  0999 V2000
  -17.4717   24.0792  -42.8158 C   0  0  0  0  0  0  0  0  0  0  0  0
  -18.0988   22.8777  -43.1646 O   0  0  0  0  0  0  0  0  0  0  0  0
  -17.7769   21.6560  -42.5660 C   0  0  0  0  0  0  0  0  0  0  0  0
  -16.8035   21.6320  -41.5932 C   0  0  0  0  0  0  0  0  0  0  0  0
  -16.4977   20.4213  -41.0132 C   0  0  0  0  0  0  0  0  0  0  0  0
  -17.1102   19.2514  -41.3562 C   0  0  0  0  0  0  0  0  0  0  0  0
  -16.7664   17.9412  -40.7522 C   0  0  0  0  0  0  0  0  0  0  0  0
  -16.4007   18.0217  -39.3594 N   0  0  0  0  0  0  0  0  0  0  0  0
  -15.1700   18.0450  -38.8364 C   0  0  0  0  0  0  0  0  0  0  0  0
  -13.9004   17.8702  -39.5290 C   0  0  0  0  0  0  0  0  0  0  0  0
  -13.2105   19.0521  -40.0781 C   0  0  0  0  0  0  0  0  0  0  0  0
  -11.9137   18.6453  -40.7055 C   0  0  0  0  0  0  0  0  0  0  0  0
  -11.8224   18.2803  -42.0223 C   0  0  0  0  0  0  0  0  0  0  0  0
  -10.6017   17.9036  -42.5886 C   0  0  0  0  0  0  0  0  0  0  0  0
   -9.4717   17.8978  -41.8154 C   0  0  0  0  0  0  0  0  0  0  0  0
   -9.5836   18.2714  -40.4809 C   0  0  0  0  0  0  0  0  0  0  0  0
  -10.7968   18.6470  -39.9129 C   0  0  0  0  0  0  0  0  0  0  0  0
  -15.3581   18.2026  -37.4809 N   0  0  0  0  0  0  0  0  0  0  0  0
  -16.6493   18.2638  -37.2451 N   0  0  0  0  0  0  0  0  0  0  0  0
  -17.3511   18.1559  -38.3813 C   0  0  0  0  0  0  0  0  0  0  0  0
  -18.8222   18.1771  -38.5956 C   0  0  1  0  0  0  0  0  0  0  0  0
  -19.4574   16.8625  -38.2025 C   0  0  0  0  0  0  0  0  0  0  0  0
  -20.9082   16.8018  -38.3938 C   0  0  0  0  0  0  0  0  0  0  0  0
  -21.5293   16.2473  -39.5268 C   0  0  0  0  0  0  0  0  0  0  0  0
  -22.8507   16.3834  -39.4067 N   0  0  0  0  0  0  0  0  0  0  0  0
  -23.1559   17.0028  -38.2463 C   0  0  0  0  0  0  0  0  0  0  0  0
  -24.3071   17.3843  -37.6191 C   0  0  0  0  0  0  0  0  0  0  0  0
  -24.3326   18.0115  -36.3945 C   0  0  0  0  0  0  0  0  0  0  0  0
  -23.1147   18.2500  -35.8011 C   0  0  0  0  0  0  0  0  0  0  0  0
  -21.9319   17.8889  -36.3865 C   0  0  0  0  0  0  0  0  0  0  0  0
  -21.9445   17.2602  -37.6203 C   0  0  0  0  0  0  0  0  0  0  0  0
  -19.3594   19.2398  -37.7748 N   0  0  0  0  0  0  0  0  0  0  0  0
  -20.1566   20.2906  -38.3184 C   0  0  0  0  0  0  0  0  0  0  0  0
  -20.4189   20.3266  -39.5406 O   0  0  0  0  0  0  0  0  0  0  0  0
  -20.6779   21.3500  -37.4202 C   0  0  0  0  0  0  0  0  0  0  0  0
  -21.4549   22.3058  -38.1909 N   0  0  0  0  0  0  0  0  0  0  0  0
  -18.0944   19.3377  -42.3532 C   0  0  0  0  0  0  0  0  0  0  0  0
  -18.4360   20.5148  -42.9607 C   0  0  0  0  0  0  0  0  0  0  0  0
  -17.0191   19.2999  -39.9109 Cl  0  0  0  0  0  0  0  0  0  0  0  0
  1  2  1  0
  2  3  1  0
  3  4  2  0
  4  5  1  0
  5  6  2  0
  6  7  1  0
  7  8  1  0
  8  9  1  0
  9 10  1  0
 10 11  1  0
 11 12  1  0
 12 13  2  0
 13 14  1  0
 14 15  2  0
 15 16  1  0
 16 17  2  0
  9 18  2  0
 18 19  1  0
 19 20  2  0
 20 21  1  0
 21 22  1  1
 22 23  1  0
 23 24  2  0
 24 25  1  0
 25 26  1  0
 26 27  2  0
 27 28  1  0
 28 29  2  0
 29 30  1  0
 30 31  2  0
 21 32  1  0
 32 33  1  0
 33 34  2  0
 33 35  1  0
 35 36  1  0
  6 37  1  0
 37 38  2  0
 38  3  1  0
 20  8  1  0
 31 23  1  0
 17 12  1  0
 31 26  1  0
M  END
$$$$
