
     RDKit          3D

 36 40  0  0  0  0  0  0  0  0999 V2000
  -21.3864   40.6627  -18.1637 C   0  0  0  0  0  0  0  0  0  0  0  0
  -20.6467   41.7094  -18.4730 C   0  0  0  0  0  0  0  0  0  0  0  0
  -20.3222   42.0051  -19.9027 C   0  0  0  0  0  0  0  0  0  0  0  0
  -19.0892   42.7344  -20.0276 N   0  0  0  0  0  0  0  0  0  0  0  0
  -17.8755   42.1842  -20.4400 C   0  0  0  0  0  0  0  0  0  0  0  0
  -17.7727   40.8080  -20.7257 N   0  0  0  0  0  0  0  0  0  0  0  0
  -17.9949   39.8793  -22.1118 S   0  0  0  0  0  6  0  0  0  0  0  0
  -19.2994   39.0234  -21.8495 O   0  0  0  0  0  0  0  0  0  0  0  0
  -16.9486   38.8604  -22.3994 O   0  0  0  0  0  0  0  0  0  0  0  0
  -18.4395   40.8563  -23.4774 C   0  0  0  0  0  0  0  0  0  0  0  0
  -17.4575   41.3069  -24.3278 C   0  0  0  0  0  0  0  0  0  0  0  0
  -17.7704   42.1535  -25.4018 C   0  0  0  0  0  0  0  0  0  0  0  0
  -19.0804   42.5365  -25.6038 C   0  0  0  0  0  0  0  0  0  0  0  0
  -20.0659   42.0924  -24.7609 C   0  0  0  0  0  0  0  0  0  0  0  0
  -19.7187   41.2466  -23.6961 C   0  0  0  0  0  0  0  0  0  0  0  0
  -17.0131   43.2345  -20.4117 C   0  0  0  0  0  0  0  0  0  0  0  0
  -15.2960   43.2906  -20.6692 S   0  0  0  0  0  6  0  0  0  0  0  0
  -15.0609   44.4498  -21.6775 O   0  0  0  0  0  0  0  0  0  0  0  0
  -14.6529   42.1460  -21.2937 O   0  0  0  0  0  0  0  0  0  0  0  0
  -14.4661   43.7781  -19.1789 C   0  0  0  0  0  0  0  0  0  0  0  0
  -13.9993   45.0928  -19.0598 C   0  0  0  0  0  0  0  0  0  0  0  0
  -13.3456   45.5325  -17.9298 C   0  0  0  0  0  0  0  0  0  0  0  0
  -13.1269   44.6830  -16.8668 C   0  0  0  0  0  0  0  0  0  0  0  0
  -12.4140   45.1673  -15.6376 C   0  0  0  0  0  0  0  0  0  0  0  0
  -13.5810   43.3902  -16.9732 C   0  0  0  0  0  0  0  0  0  0  0  0
  -14.2469   42.9433  -18.1250 C   0  0  0  0  0  0  0  0  0  0  0  0
  -17.6976   44.4143  -19.9916 C   0  0  0  0  0  0  0  0  0  0  0  0
  -17.3002   45.6845  -19.8142 N   0  0  0  0  0  0  0  0  0  0  0  0
  -18.1927   46.6309  -19.4007 C   0  0  0  0  0  0  0  0  0  0  0  0
  -17.8237   47.9451  -19.2094 C   0  0  0  0  0  0  0  0  0  0  0  0
  -18.7339   48.9098  -18.7901 C   0  0  0  0  0  0  0  0  0  0  0  0
  -20.0412   48.5164  -18.5646 C   0  0  0  0  0  0  0  0  0  0  0  0
  -20.3979   47.2071  -18.7577 C   0  0  0  0  0  0  0  0  0  0  0  0
  -19.4917   46.2427  -19.1760 C   0  0  0  0  0  0  0  0  0  0  0  0
  -19.8710   44.9711  -19.3576 N   0  0  0  0  0  0  0  0  0  0  0  0
  -18.9762   44.0277  -19.7711 C   0  0  0  0  0  0  0  0  0  0  0  0
  1  2  2  0
  2  3  1  0
  3  4  1  0
  4  5  1  0
  5  6  1  0
  6  7  1  0
  7  8  2  0
  7  9  2  0
  7 10  1  0
 10 11  2  0
 11 12  1  0
 12 13  2  0
 13 14  1  0
 14 15  2  0
  5 16  2  0
 16 17  1  0
 17 18  2  0
 17 19  2  0
 17 20  1  0
 20 21  2  0
 21 22  1  0
 22 23  2  0
 23 24  1  0
 23 25  1  0
 25 26  2  0
 16 27  1  0
 27 28  2  0
 28 29  1  0
 29 30  2  0
 30 31  1  0
 31 32  2  0
 32 33  1  0
 33 34  2  0
 34 35  1  0
 35 36  2  0
 36  4  1  0
 15 10  1  0
 26 20  1  0
 36 27  1  0
 34 29  1  0
M  END
$$$$
