
     RDKit          3D

 30 34  0  0  0  0  0  0  0  0999 V2000
  -18.1170   43.6579  -22.6744 C   0  0  0  0  0  0  0  0  0  0  0  0
  -17.6178   43.4284  -21.3394 C   0  0  1  0  0  0  0  0  0  0  0  0
  -17.5639   41.9522  -21.1470 N   0  0  0  0  0  0  0  0  0  0  0  0
  -18.2468   41.3262  -20.0775 C   0  0  0  0  0  0  0  0  0  0  0  0
  -17.8039   40.2201  -19.4705 N   0  0  0  0  0  0  0  0  0  0  0  0
  -18.4725   39.6286  -18.4533 C   0  0  0  0  0  0  0  0  0  0  0  0
  -19.6323   40.1246  -17.9902 N   0  0  0  0  0  0  0  0  0  0  0  0
  -20.1182   41.2387  -18.5711 C   0  0  0  0  0  0  0  0  0  0  0  0
  -21.2367   41.9566  -18.3293 N   0  0  0  0  0  0  0  0  0  0  0  0
  -21.2504   42.9715  -19.1866 C   0  0  0  0  0  0  0  0  0  0  0  0
  -20.1632   42.9236  -19.9773 N   0  0  0  0  0  0  0  0  0  0  0  0
  -19.4351   41.8475  -19.6142 C   0  0  0  0  0  0  0  0  0  0  0  0
  -16.4164   43.9593  -20.7869 C   0  0  0  0  0  0  0  0  0  0  0  0
  -15.3206   43.0595  -20.8149 C   0  0  0  0  0  0  0  0  0  0  0  0
  -14.0839   43.3795  -20.3256 C   0  0  0  0  0  0  0  0  0  0  0  0
  -13.0096   42.5171  -20.3459 C   0  0  0  0  0  0  0  0  0  0  0  0
  -11.7739   42.8937  -19.8354 C   0  0  0  0  0  0  0  0  0  0  0  0
  -11.6164   44.1393  -19.3030 C   0  0  0  0  0  0  0  0  0  0  0  0
  -12.6657   45.0138  -19.2706 C   0  0  0  0  0  0  0  0  0  0  0  0
  -12.4743   46.6178  -18.5885 Cl  0  0  0  0  0  0  0  0  0  0  0  0
  -13.8958   44.6311  -19.7819 C   0  0  0  0  0  0  0  0  0  0  0  0
  -14.9397   45.5084  -19.7471 C   0  0  0  0  0  0  0  0  0  0  0  0
  -14.8447   46.6734  -19.2647 O   0  0  0  0  0  0  0  0  0  0  0  0
  -16.1741   45.1306  -20.2581 N   0  0  0  0  0  0  0  0  0  0  0  0
  -17.2224   46.0847  -20.1771 C   0  0  0  0  0  0  0  0  0  0  0  0
  -17.3858   47.0439  -21.1254 C   0  0  0  0  0  0  0  0  0  0  0  0
  -18.3765   47.9779  -21.0191 C   0  0  0  0  0  0  0  0  0  0  0  0
  -19.2153   47.9297  -19.9225 C   0  0  0  0  0  0  0  0  0  0  0  0
  -19.0943   46.9793  -18.9322 C   0  0  0  0  0  0  0  0  0  0  0  0
  -18.0610   46.0534  -19.1012 C   0  0  0  0  0  0  0  0  0  0  0  0
  2  1  1  6
  2  3  1  0
  3  4  1  0
  4  5  2  0
  5  6  1  0
  6  7  2  0
  7  8  1  0
  8  9  1  0
  9 10  1  0
 10 11  2  0
 11 12  1  0
  2 13  1  0
 13 14  2  0
 14 15  1  0
 15 16  2  0
 16 17  1  0
 17 18  2  0
 18 19  1  0
 19 20  1  0
 19 21  2  0
 21 22  1  0
 22 23  2  0
 22 24  1  0
 24 25  1  0
 25 26  2  0
 26 27  1  0
 27 28  2  0
 28 29  1  0
 29 30  2  0
 12  4  1  0
 24 13  1  0
 30 25  1  0
 12  8  2  0
 21 15  1  0
M  END
$$$$
