
     RDKit          3D

 12 12  0  0  0  0  0  0  0  0999 V2000
  -16.2204   40.1364  -23.0736 O   0  0  0  0  0  0  0  0  0  0  0  0
  -17.4506   39.8933  -23.1627 C   0  0  0  0  0  0  0  0  0  0  0  0
  -18.2493   40.8028  -23.8344 O   0  0  0  0  0  0  0  0  0  0  0  0
  -18.0195   38.6906  -22.5770 C   0  0  0  0  0  0  0  0  0  0  0  0
  -17.2519   37.7674  -21.9048 C   0  0  0  0  0  0  0  0  0  0  0  0
  -17.8344   36.6438  -21.3670 C   0  0  0  0  0  0  0  0  0  0  0  0
  -19.1999   36.3964  -21.4771 C   0  0  0  0  0  0  0  0  0  0  0  0
  -19.8184   35.2035  -20.9062 C   0  0  0  0  0  0  0  0  0  0  0  0
  -20.9200   34.8021  -21.3084 O   0  0  0  0  0  0  0  0  0  0  0  0
  -19.1953   34.4817  -19.8971 O   0  0  0  0  0  0  0  0  0  0  0  0
  -19.9510   37.3253  -22.1495 C   0  0  0  0  0  0  0  0  0  0  0  0
  -19.3807   38.4696  -22.7015 C   0  0  0  0  0  0  0  0  0  0  0  0
  1  2  2  0
  2  3  1  0
  2  4  1  0
  4  5  2  0
  5  6  1  0
  6  7  2  0
  7  8  1  0
  8  9  2  0
  8 10  1  0
  7 11  1  0
 11 12  2  0
 12  4  1  0
M  END
$$$$
