
     RDKit          3D

 23 23  0  0  0  0  0  0  0  0999 V2000
  -23.2790   34.2740  -25.7464 C   0  0  0  0  0  0  0  0  0  0  0  0
  -21.9457   34.9257  -25.6310 C   0  0  0  0  0  0  0  0  0  0  0  0
  -21.0812   34.8718  -26.5308 O   0  0  0  0  0  0  0  0  0  0  0  0
  -21.6581   35.6307  -24.4514 N   0  0  0  0  0  0  0  0  0  0  0  0
  -20.3567   36.2162  -24.1478 C   0  0  2  0  0  0  0  0  0  0  0  0
  -19.7258   35.5319  -22.9886 C   0  0  1  0  0  0  0  0  0  0  0  0
  -18.7593   34.5682  -23.4683 N   0  0  0  0  0  0  0  0  0  0  0  0
  -18.8739   33.1730  -23.1984 C   0  0  0  0  0  0  0  0  0  0  0  0
  -19.8028   32.8014  -22.3902 N   0  0  0  0  0  0  0  0  0  0  0  0
  -18.0271   32.2108  -23.7710 N   0  0  0  0  0  0  0  0  0  0  0  0
  -19.1285   36.4386  -21.9916 C   0  0  0  0  0  0  0  0  0  0  0  0
  -19.0467   37.7385  -22.0789 C   0  0  0  0  0  0  0  0  0  0  0  0
  -18.4290   38.5076  -21.0160 C   0  0  0  0  0  0  0  0  0  0  0  0
  -17.8666   37.8962  -20.0849 O   0  0  0  0  0  0  0  0  0  0  0  0
  -18.4355   39.8880  -20.9881 O   0  0  0  0  0  0  0  0  0  0  0  0
  -19.5750   38.3207  -23.2242 O   0  0  0  0  0  0  0  0  0  0  0  0
  -20.5719   37.6915  -23.9627 C   0  0  1  0  0  0  0  0  0  0  0  0
  -20.7405   38.2980  -25.3427 C   0  0  2  0  0  0  0  0  0  0  0  0
  -19.5496   38.2548  -26.0486 O   0  0  0  0  0  0  0  0  0  0  0  0
  -21.1836   39.7367  -25.2730 C   0  0  2  0  0  0  0  0  0  0  0  0
  -22.3251   39.8709  -24.5109 O   0  0  0  0  0  0  0  0  0  0  0  0
  -21.3328   40.3641  -26.6446 C   0  0  0  0  0  0  0  0  0  0  0  0
  -22.5195   39.8339  -27.1857 O   0  0  0  0  0  0  0  0  0  0  0  0
  1  2  1  0
  2  3  2  0
  2  4  1  0
  5  4  1  1
  5  6  1  0
  6  7  1  6
  7  8  1  0
  8  9  2  0
  8 10  1  0
  6 11  1  0
 11 12  2  0
 12 13  1  0
 13 14  2  0
 13 15  1  0
 12 16  1  0
 17 16  1  6
 17 18  1  0
 18 19  1  1
 18 20  1  0
 20 21  1  6
 20 22  1  0
 22 23  1  0
 17  5  1  0
M  END
$$$$
