
     RDKit          3D

 26 28  0  0  0  0  0  0  0  0999 V2000
  -20.8695   47.8346  -19.2094 C   0  0  0  0  0  0  0  0  0  0  0  0
  -20.6889   47.5564  -20.9580 S   0  0  0  0  0  6  0  0  0  0  0  0
  -19.5819   48.4831  -21.4311 O   0  0  0  0  0  0  0  0  0  0  0  0
  -21.9672   47.8797  -21.6386 O   0  0  0  0  0  0  0  0  0  0  0  0
  -20.1732   45.9164  -21.2054 C   0  0  0  0  0  0  0  0  0  0  0  0
  -18.9562   45.4752  -20.7125 C   0  0  0  0  0  0  0  0  0  0  0  0
  -18.5419   44.1790  -20.9044 C   0  0  0  0  0  0  0  0  0  0  0  0
  -19.3490   43.2742  -21.6073 C   0  0  0  0  0  0  0  0  0  0  0  0
  -18.8987   41.8951  -21.8066 C   0  0  0  0  0  0  0  0  0  0  0  0
  -17.5895   41.5142  -21.6465 C   0  0  0  0  0  0  0  0  0  0  0  0
  -17.1768   40.2385  -21.8316 N   0  0  0  0  0  0  0  0  0  0  0  0
  -18.0588   39.2814  -22.1869 C   0  0  0  0  0  0  0  0  0  0  0  0
  -17.6783   37.9329  -22.3927 N   0  0  0  0  0  0  0  0  0  0  0  0
  -19.3821   39.6561  -22.3509 C   0  0  0  0  0  0  0  0  0  0  0  0
  -20.3527   38.6103  -22.7403 C   0  0  0  0  0  0  0  0  0  0  0  0
  -20.0238   37.3978  -22.7676 O   0  0  0  0  0  0  0  0  0  0  0  0
  -21.6786   38.9886  -23.0886 N   0  0  0  0  0  0  0  0  0  0  0  0
  -22.6631   37.9954  -23.3432 C   0  0  0  0  0  0  0  0  0  0  0  0
  -23.8597   38.3073  -23.9326 C   0  0  0  0  0  0  0  0  0  0  0  0
  -24.7936   37.3196  -24.1657 C   0  0  0  0  0  0  0  0  0  0  0  0
  -24.5583   36.0014  -23.8182 C   0  0  0  0  0  0  0  0  0  0  0  0
  -23.3546   35.6783  -23.2236 C   0  0  0  0  0  0  0  0  0  0  0  0
  -22.4254   36.6829  -22.9957 C   0  0  0  0  0  0  0  0  0  0  0  0
  -19.7658   40.9240  -22.1621 N   0  0  0  0  0  0  0  0  0  0  0  0
  -20.5465   43.7452  -22.0808 C   0  0  0  0  0  0  0  0  0  0  0  0
  -20.9829   45.0487  -21.8980 C   0  0  0  0  0  0  0  0  0  0  0  0
  1  2  1  0
  2  3  2  0
  2  4  2  0
  2  5  1  0
  5  6  2  0
  6  7  1  0
  7  8  2  0
  8  9  1  0
  9 10  2  0
 10 11  1  0
 11 12  2  0
 12 13  1  0
 12 14  1  0
 14 15  1  0
 15 16  2  0
 15 17  1  0
 17 18  1  0
 18 19  2  0
 19 20  1  0
 20 21  2  0
 21 22  1  0
 22 23  2  0
 14 24  2  0
  8 25  1  0
 25 26  2  0
 26  5  1  0
 24  9  1  0
 23 18  1  0
M  END
$$$$
