
     RDKit          3D

 28 30  0  0  0  0  0  0  0  0999 V2000
  -24.6808   21.4735  -30.4075 O   0  0  0  0  0  0  0  0  0  0  0  0
  -23.7704   21.3484  -29.5633 C   0  0  0  0  0  0  0  0  0  0  0  0
  -23.9445   21.9637  -28.3256 O   0  0  0  0  0  0  0  0  0  0  0  0
  -22.5580   20.5908  -29.8383 C   0  0  0  0  0  0  0  0  0  0  0  0
  -22.6398   19.2791  -30.2514 C   0  0  0  0  0  0  0  0  0  0  0  0
  -21.4997   18.5204  -30.5239 C   0  0  0  0  0  0  0  0  0  0  0  0
  -20.2502   19.0623  -30.3874 C   0  0  0  0  0  0  0  0  0  0  0  0
  -18.9987   18.3519  -30.6432 C   0  0  0  0  0  0  0  0  0  0  0  0
  -18.9296   17.0543  -30.7088 C   0  0  0  0  0  0  0  0  0  0  0  0
  -20.3029   15.9347  -30.6847 S   0  0  0  0  0  0  0  0  0  0  0  0
  -19.3301   14.4246  -30.6585 C   0  0  0  0  0  0  0  0  0  0  0  0
  -19.9080   12.8977  -30.5072 S   0  0  0  0  0  0  0  0  0  0  0  0
  -17.9866   14.8482  -30.7901 N   0  0  0  0  0  0  0  0  0  0  0  0
  -16.8873   13.8580  -30.8882 C   0  0  0  0  0  0  0  0  0  0  0  0
  -16.1595   13.6892  -29.6361 C   0  0  0  0  0  0  0  0  0  0  0  0
  -16.7834   13.8888  -28.4221 C   0  0  0  0  0  0  0  0  0  0  0  0
  -16.1241   13.7334  -27.2220 C   0  0  0  0  0  0  0  0  0  0  0  0
  -14.7870   13.3637  -27.2194 C   0  0  0  0  0  0  0  0  0  0  0  0
  -14.1324   13.1558  -28.4087 C   0  0  0  0  0  0  0  0  0  0  0  0
  -12.7030   12.7595  -28.3541 C   0  0  0  0  0  0  0  0  0  0  0  0
  -12.7015   11.4013  -28.0045 F   0  0  0  0  0  0  0  0  0  0  0  0
  -11.9717   13.4948  -27.4735 F   0  0  0  0  0  0  0  0  0  0  0  0
  -12.2152   12.7964  -29.6507 F   0  0  0  0  0  0  0  0  0  0  0  0
  -14.8296   13.3222  -29.5894 C   0  0  0  0  0  0  0  0  0  0  0  0
  -17.7630   16.2159  -30.8170 C   0  0  0  0  0  0  0  0  0  0  0  0
  -16.5963   16.7504  -30.9307 O   0  0  0  0  0  0  0  0  0  0  0  0
  -20.1789   20.3790  -29.9725 C   0  0  0  0  0  0  0  0  0  0  0  0
  -21.3006   21.1368  -29.7011 C   0  0  0  0  0  0  0  0  0  0  0  0
  1  2  2  0
  2  3  1  0
  2  4  1  0
  4  5  2  0
  5  6  1  0
  6  7  2  0
  7  8  1  0
  8  9  2  0
  9 10  1  0
 10 11  1  0
 11 12  2  0
 11 13  1  0
 13 14  1  0
 14 15  1  0
 15 16  2  0
 16 17  1  0
 17 18  2  0
 18 19  1  0
 19 20  1  0
 20 21  1  0
 20 22  1  0
 20 23  1  0
 19 24  2  0
 13 25  1  0
 25 26  2  0
  7 27  1  0
 27 28  2  0
 28  4  1  0
 25  9  1  0
 24 15  1  0
M  END
$$$$
