
     RDKit          3D

  8  7  0  0  0  0  0  0  0  0999 V2000
  -19.9012   16.7737  -32.9105 N   0  0  0  0  0  0  0  0  0  0  0  0
  -18.5330   16.4050  -32.5190 C   0  0  0  0  0  0  0  0  0  0  0  0
  -18.5332   16.2626  -31.0278 C   0  0  0  0  0  0  0  0  0  0  0  0
  -17.9722   14.9583  -30.5530 C   0  0  0  0  0  0  0  0  0  0  0  0
  -17.0575   15.1363  -29.3837 C   0  0  0  0  0  0  0  0  0  0  0  0
  -16.4490   13.8383  -28.9136 C   0  0  0  0  0  0  0  0  0  0  0  0
  -15.0008   14.1442  -28.5437 C   0  0  0  0  0  0  0  0  0  0  0  0
  -14.2888   12.9771  -28.1071 N   0  0  0  0  0  0  0  0  0  0  0  0
  1  2  1  0
  2  3  1  0
  3  4  1  0
  4  5  1  0
  5  6  1  0
  6  7  1  0
  7  8  1  0
M  END
$$$$
