
     RDKit          3D

 21 23  0  0  0  0  0  0  0  0999 V2000
  -17.6244   39.5720  -21.5653 O   0  0  0  0  0  0  0  0  0  0  0  0
  -18.7861   39.7651  -20.6852 S   0  0  0  0  0  6  0  0  0  0  0  0
  -19.3632   38.2877  -20.7377 O   0  0  0  0  0  0  0  0  0  0  0  0
  -18.5057   39.8061  -19.0256 O   0  0  0  0  0  0  0  0  0  0  0  0
  -20.0987   40.7182  -21.2387 C   0  0  0  0  0  0  0  0  0  0  0  0
  -21.4037   40.1864  -21.2390 C   0  0  0  0  0  0  0  0  0  0  0  0
  -22.5391   40.8679  -21.5684 C   0  0  0  0  0  0  0  0  0  0  0  0
  -22.3844   42.1712  -21.9245 C   0  0  0  0  0  0  0  0  0  0  0  0
  -21.1440   42.7707  -21.9532 C   0  0  0  0  0  0  0  0  0  0  0  0
  -21.0767   44.1067  -22.2891 C   0  0  0  0  0  0  0  0  0  0  0  0
  -19.8601   44.7258  -22.2906 C   0  0  0  0  0  0  0  0  0  0  0  0
  -18.7330   44.0367  -21.9702 C   0  0  0  0  0  0  0  0  0  0  0  0
  -18.7554   42.6563  -21.6189 C   0  0  0  0  0  0  0  0  0  0  0  0
  -17.5306   42.0654  -21.3375 N   0  0  0  0  0  0  0  0  0  0  0  0
  -16.4927   42.8707  -20.7225 C   0  0  0  0  0  0  0  0  0  0  0  0
  -15.1556   42.6843  -20.9516 C   0  0  0  0  0  0  0  0  0  0  0  0
  -14.2126   43.4773  -20.3333 C   0  0  0  0  0  0  0  0  0  0  0  0
  -14.5701   44.4854  -19.4641 C   0  0  0  0  0  0  0  0  0  0  0  0
  -15.9081   44.6770  -19.2309 C   0  0  0  0  0  0  0  0  0  0  0  0
  -16.8387   43.8911  -19.8437 C   0  0  0  0  0  0  0  0  0  0  0  0
  -19.9756   42.0375  -21.6092 C   0  0  0  0  0  0  0  0  0  0  0  0
  1  2  2  0
  2  3  2  0
  2  4  1  0
  2  5  1  0
  5  6  2  0
  6  7  1  0
  7  8  2  0
  8  9  1  0
  9 10  2  0
 10 11  1  0
 11 12  2  0
 12 13  1  0
 13 14  1  0
 14 15  1  0
 15 16  2  0
 16 17  1  0
 17 18  2  0
 18 19  1  0
 19 20  2  0
 13 21  2  0
 21  5  1  0
 21  9  1  0
 20 15  1  0
M  END
$$$$
