
     RDKit          3D

 42 46  0  0  0  0  0  0  0  0999 V2000
  -12.7734   11.6525  -27.7359 C   0  0  0  0  0  0  0  0  0  0  0  0
  -13.8170   12.5498  -28.2920 C   0  0  0  0  0  0  0  0  0  0  0  0
  -13.7076   13.1360  -29.5405 C   0  0  0  0  0  0  0  0  0  0  0  0
  -14.6946   13.9818  -30.0596 C   0  0  0  0  0  0  0  0  0  0  0  0
  -15.8033   14.2446  -29.3226 C   0  0  0  0  0  0  0  0  0  0  0  0
  -16.8892   15.0689  -29.6891 N   0  0  0  0  0  0  0  0  0  0  0  0
  -18.0655   14.6788  -30.3806 C   0  0  0  0  0  0  0  0  0  0  0  0
  -19.0721   14.3933  -29.7179 O   0  0  0  0  0  0  0  0  0  0  0  0
  -18.0948   14.6126  -31.8704 C   0  0  1  0  0  0  0  0  0  0  0  0
  -18.9923   13.4143  -32.1807 C   0  0  0  0  0  0  0  0  0  0  0  0
  -20.3797   13.6341  -31.6103 C   0  0  0  0  0  0  0  0  0  0  0  0
  -20.8670   15.0513  -31.8192 C   0  0  0  0  0  0  0  0  0  0  0  0
  -20.0448   15.7399  -32.7787 N   0  0  0  0  0  0  0  0  0  0  0  0
  -20.6545   16.2569  -33.9633 C   0  0  0  0  0  0  0  0  0  0  0  0
  -19.9365   16.7586  -34.8543 O   0  0  0  0  0  0  0  0  0  0  0  0
  -22.0930   16.2051  -34.1469 C   0  0  0  0  0  0  0  0  0  0  0  0
  -22.9435   17.1719  -33.7139 C   0  0  0  0  0  0  0  0  0  0  0  0
  -22.4570   18.3600  -33.0051 C   0  0  0  0  0  0  0  0  0  0  0  0
  -24.3104   17.0650  -33.9296 C   0  0  0  0  0  0  0  0  0  0  0  0
  -24.7732   15.9578  -34.5903 C   0  0  0  0  0  0  0  0  0  0  0  0
  -23.9279   14.9597  -35.0409 C   0  0  0  0  0  0  0  0  0  0  0  0
  -22.5751   15.0837  -34.8178 C   0  0  0  0  0  0  0  0  0  0  0  0
  -21.7392   14.1150  -35.2518 F   0  0  0  0  0  0  0  0  0  0  0  0
  -18.6117   15.8547  -32.5397 C   0  0  1  0  0  0  0  0  0  0  0  0
  -18.2292   17.1182  -31.9181 C   0  0  0  0  0  0  0  0  0  0  0  0
  -16.9354   17.6033  -31.9335 C   0  0  0  0  0  0  0  0  0  0  0  0
  -16.5874   18.7991  -31.3446 C   0  0  0  0  0  0  0  0  0  0  0  0
  -17.5344   19.5626  -30.7106 C   0  0  0  0  0  0  0  0  0  0  0  0
  -17.1525   20.8086  -30.1027 N   0  0  0  0  0  0  0  0  0  0  0  0
  -18.0939   21.8693  -29.8795 C   0  0  0  0  0  0  0  0  0  0  0  0
  -17.4276   22.9247  -28.9974 C   0  0  0  0  0  0  0  0  0  0  0  0
  -16.4992   23.6259  -29.9606 C   0  0  0  0  0  0  0  0  0  0  0  0
  -17.3194   23.7283  -31.2177 C   0  0  0  0  0  0  0  0  0  0  0  0
  -18.3722   22.6464  -31.1628 C   0  0  0  0  0  0  0  0  0  0  0  0
  -18.8343   19.1120  -30.6739 C   0  0  0  0  0  0  0  0  0  0  0  0
  -19.1591   17.8969  -31.2782 C   0  0  0  0  0  0  0  0  0  0  0  0
  -15.9151   13.6489  -28.0527 C   0  0  0  0  0  0  0  0  0  0  0  0
  -14.9455   12.8202  -27.5475 C   0  0  0  0  0  0  0  0  0  0  0  0
  -15.0967   12.2001  -26.1872 C   0  0  0  0  0  0  0  0  0  0  0  0
  -16.3425   12.4304  -25.6538 F   0  0  0  0  0  0  0  0  0  0  0  0
  -14.8300   10.8625  -26.1936 F   0  0  0  0  0  0  0  0  0  0  0  0
  -14.1911   12.8210  -25.3143 F   0  0  0  0  0  0  0  0  0  0  0  0
  1  2  1  0
  2  3  2  0
  3  4  1  0
  4  5  2  0
  5  6  1  0
  6  7  1  0
  7  8  2  0
  9  7  1  1
  9 10  1  0
 10 11  1  0
 11 12  1  0
 12 13  1  0
 13 14  1  0
 14 15  2  0
 14 16  1  0
 16 17  2  0
 17 18  1  0
 17 19  1  0
 19 20  2  0
 20 21  1  0
 21 22  2  0
 22 23  1  0
 13 24  1  0
 24 25  1  1
 25 26  2  0
 26 27  1  0
 27 28  2  0
 28 29  1  0
 29 30  1  0
 30 31  1  0
 31 32  1  0
 32 33  1  0
 33 34  1  0
 28 35  1  0
 35 36  2  0
  5 37  1  0
 37 38  2  0
 38 39  1  0
 39 40  1  0
 39 41  1  0
 39 42  1  0
 38  2  1  0
 24  9  1  0
 36 25  1  0
 22 16  1  0
 34 30  1  0
M  END
$$$$
