
     RDKit          3D

 16 17  0  0  0  0  0  0  0  0999 V2000
  -19.3999   40.8192  -18.1408 C   0  0  0  0  0  0  0  0  0  0  0  0
  -18.9275   40.6859  -19.5449 C   0  0  0  0  0  0  0  0  0  0  0  0
  -19.1145   39.5101  -20.2403 C   0  0  0  0  0  0  0  0  0  0  0  0
  -18.7093   39.3345  -21.5071 N   0  0  0  0  0  0  0  0  0  0  0  0
  -18.8844   38.1284  -22.2650 C   0  0  1  0  0  0  0  0  0  0  0  0
  -17.6831   37.2745  -22.2848 C   0  0  0  0  0  0  0  0  0  0  0  0
  -18.1169   36.0316  -22.4631 C   0  0  0  0  0  0  0  0  0  0  0  0
  -19.6220   36.1388  -22.5527 C   0  0  1  0  0  0  0  0  0  0  0  0
  -20.1904   34.9178  -21.9028 C   0  0  0  0  0  0  0  0  0  0  0  0
  -21.0513   35.3380  -20.8933 O   0  0  0  0  0  0  0  0  0  0  0  0
  -19.8639   37.2990  -21.7771 O   0  0  0  0  0  0  0  0  0  0  0  0
  -18.0934   40.3676  -22.1091 C   0  0  0  0  0  0  0  0  0  0  0  0
  -17.6732   40.3143  -23.2917 O   0  0  0  0  0  0  0  0  0  0  0  0
  -17.8897   41.5480  -21.4541 N   0  0  0  0  0  0  0  0  0  0  0  0
  -18.2937   41.7225  -20.1916 C   0  0  0  0  0  0  0  0  0  0  0  0
  -18.1055   42.8226  -19.5766 O   0  0  0  0  0  0  0  0  0  0  0  0
  1  2  1  0
  2  3  2  0
  3  4  1  0
  5  4  1  1
  5  6  1  0
  6  7  2  0
  7  8  1  0
  8  9  1  1
  9 10  1  0
  8 11  1  0
  4 12  1  0
 12 13  2  0
 12 14  1  0
 14 15  1  0
 15 16  2  0
 15  2  1  0
 11  5  1  0
M  END
$$$$
