
     RDKit          3D

 35 39  0  0  0  0  0  0  0  0999 V2000
  -15.7838   14.2869  -34.0768 C   0  0  0  0  0  0  0  0  0  0  0  0
  -15.8850   14.0495  -32.5878 C   0  0  0  0  0  0  0  0  0  0  0  0
  -17.1260   13.9836  -32.0578 N   0  0  0  0  0  0  0  0  0  0  0  0
  -17.1617   13.7728  -30.7098 C   0  0  0  0  0  0  0  0  0  0  0  0
  -18.3576   13.6747  -29.9818 N   0  0  0  0  0  0  0  0  0  0  0  0
  -19.5667   14.1153  -30.6331 C   0  0  0  0  0  0  0  0  0  0  0  0
  -20.4240   13.3243  -31.3300 N   0  0  0  0  0  0  0  0  0  0  0  0
  -21.4365   14.0254  -31.7896 N   0  0  0  0  0  0  0  0  0  0  0  0
  -21.2857   15.3206  -31.4100 C   0  0  0  0  0  0  0  0  0  0  0  0
  -20.1186   15.3795  -30.6885 C   0  0  0  0  0  0  0  0  0  0  0  0
  -19.8974   16.7881  -30.2466 C   0  0  0  0  0  0  0  0  0  0  0  0
  -20.7882   17.5468  -31.0909 N   0  0  0  0  0  0  0  0  0  0  0  0
  -20.7380   18.9058  -31.5132 C   0  0  0  0  0  0  0  0  0  0  0  0
  -21.6711   19.4014  -32.2359 O   0  0  0  0  0  0  0  0  0  0  0  0
  -19.6998   19.8123  -31.1887 N   0  0  0  0  0  0  0  0  0  0  0  0
  -19.7188   21.1992  -31.6294 C   0  0  2  0  0  0  0  0  0  0  0  0
  -18.4833   21.6564  -32.2990 C   0  0  0  0  0  0  0  0  0  0  0  0
  -17.2462   21.4819  -31.5885 N   0  0  0  0  0  0  0  0  0  0  0  0
  -17.5070   20.7140  -30.3438 C   0  0  0  0  0  0  0  0  0  0  0  0
  -16.3289   20.6442  -32.3762 C   0  0  0  0  0  0  0  0  0  0  0  0
  -20.1992   22.0164  -30.4855 C   0  0  0  0  0  0  0  0  0  0  0  0
  -20.7477   23.2810  -30.6606 C   0  0  0  0  0  0  0  0  0  0  0  0
  -21.2337   24.0490  -29.6285 C   0  0  0  0  0  0  0  0  0  0  0  0
  -21.1900   23.5697  -28.3409 C   0  0  0  0  0  0  0  0  0  0  0  0
  -20.6568   22.3250  -28.1222 C   0  0  0  0  0  0  0  0  0  0  0  0
  -20.1761   21.5722  -29.1657 C   0  0  0  0  0  0  0  0  0  0  0  0
  -21.8685   16.6759  -31.4515 C   0  0  0  0  0  0  0  0  0  0  0  0
  -23.0076   16.7860  -30.4231 C   0  0  0  0  0  0  0  0  0  0  0  0
  -22.4168   16.9342  -32.8367 C   0  0  0  0  0  0  0  0  0  0  0  0
  -15.9546   13.6480  -30.0239 C   0  0  0  0  0  0  0  0  0  0  0  0
  -15.5691   13.3655  -28.2758 S   0  0  0  0  0  0  0  0  0  0  0  0
  -13.6993   13.3671  -28.4696 C   0  0  0  0  0  0  0  0  0  0  0  0
  -13.6261   13.5810  -29.8274 C   0  0  0  0  0  0  0  0  0  0  0  0
  -14.7236   13.7150  -30.5648 C   0  0  0  0  0  0  0  0  0  0  0  0
  -14.7417   13.9320  -31.9438 N   0  0  0  0  0  0  0  0  0  0  0  0
  1  2  1  0
  2  3  2  0
  3  4  1  0
  4  5  1  0
  5  6  1  0
  6  7  2  0
  7  8  1  0
  8  9  1  0
  9 10  2  0
 10 11  1  0
 11 12  1  0
 12 13  1  0
 13 14  2  0
 13 15  1  0
 15 16  1  0
 16 17  1  1
 17 18  1  0
 18 19  1  0
 18 20  1  0
 16 21  1  0
 21 22  2  0
 22 23  1  0
 23 24  2  0
 24 25  1  0
 25 26  2  0
 12 27  1  0
 27 28  1  0
 27 29  1  0
  4 30  2  0
 30 31  1  0
 31 32  1  0
 32 33  2  0
 33 34  1  0
 34 35  2  0
 35  2  1  0
 10  6  1  0
 26 21  1  0
 34 30  1  0
 27  9  1  0
M  END
$$$$
