
     RDKit          3D

 18 19  0  0  0  0  0  0  0  0999 V2000
  -14.3106   45.2032  -18.9039 C   0  0  0  0  0  0  0  0  0  0  0  0
  -15.6685   45.4872  -19.1727 O   0  0  0  0  0  0  0  0  0  0  0  0
  -16.4479   44.5083  -19.7643 C   0  0  0  0  0  0  0  0  0  0  0  0
  -16.3171   43.1862  -19.4064 C   0  0  0  0  0  0  0  0  0  0  0  0
  -17.1073   42.2002  -20.0071 C   0  0  0  0  0  0  0  0  0  0  0  0
  -18.0141   42.5813  -20.9605 C   0  0  0  0  0  0  0  0  0  0  0  0
  -18.8575   41.6134  -21.6499 C   0  0  0  0  0  0  0  0  0  0  0  0
  -18.9963   40.3733  -21.2854 C   0  0  0  0  0  0  0  0  0  0  0  0
  -18.1738   39.5224  -19.9333 S   0  0  0  0  0  0  0  0  0  0  0  0
  -18.4905   37.8861  -20.6841 C   0  0  0  0  0  0  0  0  0  0  0  0
  -17.8584   36.8313  -20.4775 O   0  0  0  0  0  0  0  0  0  0  0  0
  -19.5937   38.1601  -21.5133 N   0  0  0  0  0  0  0  0  0  0  0  0
  -19.8571   39.3388  -21.8148 C   0  0  0  0  0  0  0  0  0  0  0  0
  -20.9584   39.6720  -22.6433 O   0  0  0  0  0  0  0  0  0  0  0  0
  -18.1371   43.9087  -21.3114 C   0  0  0  0  0  0  0  0  0  0  0  0
  -17.3676   44.8953  -20.7306 C   0  0  0  0  0  0  0  0  0  0  0  0
  -17.4630   46.2281  -21.0553 O   0  0  0  0  0  0  0  0  0  0  0  0
  -17.4501   46.7150  -22.3815 C   0  0  0  0  0  0  0  0  0  0  0  0
  1  2  1  0
  2  3  1  0
  3  4  2  0
  4  5  1  0
  5  6  2  0
  6  7  1  0
  7  8  2  0
  8  9  1  0
  9 10  1  0
 10 11  2  0
 10 12  1  0
 12 13  2  0
 13 14  1  0
  6 15  1  0
 15 16  2  0
 16 17  1  0
 17 18  1  0
 16  3  1  0
 13  8  1  0
M  END
$$$$
