
     RDKit          3D

 15 14  0  0  0  0  0  0  0  0999 V2000
  -19.5980   40.1167  -22.9468 C   0  0  0  0  0  0  0  0  0  0  0  0
  -19.1081   41.1646  -22.0182 N   0  0  0  0  0  4  0  0  0  0  0  0
  -19.5966   42.4028  -22.5209 C   0  0  0  0  0  0  0  0  0  0  0  0
  -19.6845   40.8647  -20.7337 C   0  0  0  0  0  0  0  0  0  0  0  0
  -17.6443   41.0363  -21.9856 C   0  0  0  0  0  0  0  0  0  0  0  0
  -17.0719   41.7903  -20.8429 C   0  0  0  0  0  0  0  0  0  0  0  0
  -16.5878   42.4201  -19.8503 C   0  0  0  0  0  0  0  0  0  0  0  0
  -16.0611   43.1418  -18.7153 C   0  0  0  0  0  0  0  0  0  0  0  0
  -14.8871   43.8586  -19.0110 N   0  0  0  0  0  0  0  0  0  0  0  0
  -14.9532   45.2678  -19.5575 C   0  0  0  0  0  0  0  0  0  0  0  0
  -13.8657   45.9499  -18.7354 C   0  0  0  0  0  0  0  0  0  0  0  0
  -12.7385   44.9013  -18.8172 C   0  0  0  0  0  0  0  0  0  0  0  0
  -13.5005   43.6730  -18.9547 C   0  0  0  0  0  0  0  0  0  0  0  0
  -12.9778   42.4866  -19.0244 O   0  0  0  0  0  0  0  0  0  0  0  0
  -16.8266   42.7189  -20.5905 I   0  0  0  0  0 15  0  0  0  0  0  0
  1  2  1  0
  2  3  1  0
  2  4  1  0
  2  5  1  0
  5  6  1  0
  6  7  3  0
  7  8  1  0
  8  9  1  0
  9 10  1  0
 10 11  1  0
 11 12  1  0
 12 13  1  0
 13 14  2  0
 13  9  1  0
M  CHG  2   2   1  15  -1
M  END
$$$$
