
     RDKit          3D

 31 34  0  0  0  0  0  0  0  0999 V2000
  -16.1640   19.4747  -40.7154 O   0  0  0  0  0  0  0  0  0  0  0  0
  -16.9259   19.0954  -39.8082 C   0  0  0  0  0  0  0  0  0  0  0  0
  -18.2901   19.4505  -39.8960 N   0  0  0  0  0  0  0  0  0  0  0  0
  -18.8757   20.4431  -40.6971 C   0  0  0  0  0  0  0  0  0  0  0  0
  -19.4217   21.5528  -40.0720 C   0  0  0  0  0  0  0  0  0  0  0  0
  -20.0454   22.5633  -40.7386 C   0  0  0  0  0  0  0  0  0  0  0  0
  -20.1564   22.5013  -42.1385 C   0  0  0  0  0  0  0  0  0  0  0  0
  -20.7761   23.4898  -42.8335 O   0  0  0  0  0  0  0  0  0  0  0  0
  -22.1511   23.6733  -42.8997 C   0  0  0  0  0  0  0  0  0  0  0  0
  -22.4869   24.7283  -43.7608 F   0  0  0  0  0  0  0  0  0  0  0  0
  -22.5926   23.9817  -41.6068 F   0  0  0  0  0  0  0  0  0  0  0  0
  -22.7986   22.5212  -43.2755 F   0  0  0  0  0  0  0  0  0  0  0  0
  -19.6210   21.4105  -42.7618 C   0  0  0  0  0  0  0  0  0  0  0  0
  -18.9851   20.3880  -42.0541 C   0  0  0  0  0  0  0  0  0  0  0  0
  -16.3864   18.3127  -38.7058 C   0  0  0  0  0  0  0  0  0  0  0  0
  -17.4448   17.6778  -37.3811 S   0  0  0  0  0  0  0  0  0  0  0  0
  -16.2238   16.8543  -36.5043 C   0  0  0  0  0  0  0  0  0  0  0  0
  -15.0788   17.0872  -37.2350 C   0  0  0  0  0  0  0  0  0  0  0  0
  -15.1782   17.8334  -38.3566 C   0  0  0  0  0  0  0  0  0  0  0  0
  -14.0088   18.1616  -39.1255 N   0  0  0  0  0  0  0  0  0  0  0  0
  -12.6752   17.7149  -39.1598 C   0  0  0  0  0  0  0  0  0  0  0  0
  -11.8388   17.8777  -40.2938 C   0  0  0  0  0  0  0  0  0  0  0  0
  -12.3139   18.6795  -41.3477 C   0  0  0  0  0  0  0  0  0  0  0  0
  -11.5538   18.9526  -42.4573 C   0  0  0  0  0  0  0  0  0  0  0  0
  -10.2998   18.4356  -42.5508 N   0  0  0  0  0  0  0  0  0  0  0  0
   -9.7979   17.6663  -41.5834 C   0  0  0  0  0  0  0  0  0  0  0  0
   -8.5328   17.1220  -41.6798 C   0  0  0  0  0  0  0  0  0  0  0  0
   -8.0457   16.3182  -40.6803 C   0  0  0  0  0  0  0  0  0  0  0  0
   -8.7914   16.0207  -39.5442 C   0  0  0  0  0  0  0  0  0  0  0  0
  -10.0714   16.5653  -39.4316 C   0  0  0  0  0  0  0  0  0  0  0  0
  -10.5523   17.3756  -40.4457 C   0  0  0  0  0  0  0  0  0  0  0  0
  1  2  2  0
  2  3  1  0
  3  4  1  0
  4  5  2  0
  5  6  1  0
  6  7  2  0
  7  8  1  0
  8  9  1  0
  9 10  1  0
  9 11  1  0
  9 12  1  0
  7 13  1  0
 13 14  2  0
  2 15  1  0
 15 16  1  0
 16 17  1  0
 17 18  2  0
 18 19  1  0
 19 20  1  0
 20 21  1  0
 21 22  1  0
 22 23  2  0
 23 24  1  0
 24 25  2  0
 25 26  1  0
 26 27  2  0
 27 28  1  0
 28 29  2  0
 29 30  1  0
 30 31  2  0
 14  4  1  0
 19 15  2  0
 31 22  1  0
 31 26  1  0
M  END
$$$$
