
     RDKit          3D

 25 28  0  0  0  0  0  0  0  0999 V2000
  -24.6409   21.2765  -39.0066 O   0  0  0  0  0  0  0  0  0  0  0  0
  -23.4183   20.7444  -38.5581 C   0  0  0  0  0  0  0  0  0  0  0  0
  -23.3893   19.5288  -37.9337 C   0  0  0  0  0  0  0  0  0  0  0  0
  -22.1807   19.0207  -37.4994 C   0  0  0  0  0  0  0  0  0  0  0  0
  -20.9953   19.7035  -37.6761 C   0  0  0  0  0  0  0  0  0  0  0  0
  -19.7229   19.1280  -37.1989 C   0  0  0  0  0  0  0  0  0  0  0  0
  -18.5114   19.2367  -37.7689 N   0  0  0  0  0  0  0  0  0  0  0  0
  -17.5940   18.5723  -37.0352 C   0  0  0  0  0  0  0  0  0  0  0  0
  -16.1593   18.4336  -37.2920 C   0  0  0  0  0  0  0  0  0  0  0  0
  -15.6837   17.9201  -38.4806 C   0  0  0  0  0  0  0  0  0  0  0  0
  -14.3110   17.7993  -38.6988 C   0  0  0  0  0  0  0  0  0  0  0  0
  -13.3940   18.1912  -37.7292 C   0  0  0  0  0  0  0  0  0  0  0  0
  -12.0645   18.0582  -37.9782 F   0  0  0  0  0  0  0  0  0  0  0  0
  -13.8691   18.6970  -36.5587 C   0  0  0  0  0  0  0  0  0  0  0  0
  -15.2215   18.8121  -36.3530 C   0  0  0  0  0  0  0  0  0  0  0  0
  -18.2579   18.0194  -35.9528 C   0  0  0  0  0  0  0  0  0  0  0  0
  -17.6666   17.2086  -34.8842 C   0  0  0  0  0  0  0  0  0  0  0  0
  -16.8892   16.1120  -35.1358 C   0  0  0  0  0  0  0  0  0  0  0  0
  -16.3606   15.3894  -34.0972 C   0  0  0  0  0  0  0  0  0  0  0  0
  -16.5975   15.7465  -32.8166 N   0  0  0  0  0  0  0  0  0  0  0  0
  -17.3490   16.8076  -32.5206 C   0  0  0  0  0  0  0  0  0  0  0  0
  -17.8848   17.5404  -33.5505 C   0  0  0  0  0  0  0  0  0  0  0  0
  -19.5451   18.3831  -36.0951 N   0  0  0  0  0  0  0  0  0  0  0  0
  -21.0451   20.9134  -38.3007 C   0  0  0  0  0  0  0  0  0  0  0  0
  -22.2552   21.4536  -38.7516 C   0  0  0  0  0  0  0  0  0  0  0  0
  1  2  1  0
  2  3  2  0
  3  4  1  0
  4  5  2  0
  5  6  1  0
  6  7  2  0
  7  8  1  0
  8  9  1  0
  9 10  2  0
 10 11  1  0
 11 12  2  0
 12 13  1  0
 12 14  1  0
 14 15  2  0
  8 16  2  0
 16 17  1  0
 17 18  2  0
 18 19  1  0
 19 20  2  0
 20 21  1  0
 21 22  2  0
 16 23  1  0
  5 24  1  0
 24 25  2  0
 25  2  1  0
 23  6  1  0
 15  9  1  0
 22 17  1  0
M  END
$$$$
