
     RDKit          3D

  9  9  0  0  0  0  0  0  0  0999 V2000
  -13.3329   45.4538  -19.1843 C   0  0  0  0  0  0  0  0  0  0  0  0
  -14.4930   44.7460  -19.6334 N   0  0  0  0  0  0  0  0  0  0  0  0
  -15.7326   45.2618  -19.6740 C   0  0  0  0  0  0  0  0  0  0  0  0
  -16.5986   44.3281  -20.1493 N   0  0  0  0  0  0  0  0  0  0  0  0
  -15.9060   43.2056  -20.4148 C   0  0  0  0  0  0  0  0  0  0  0  0
  -16.4369   41.9156  -20.9540 C   0  0  0  0  0  0  0  0  0  0  0  0
  -17.7306   42.1637  -21.7278 C   0  0  0  0  0  0  0  0  0  0  0  0
  -17.9096   41.0549  -22.6169 N   0  0  0  0  0  0  0  0  0  0  0  0
  -14.5871   43.4777  -20.0880 C   0  0  0  0  0  0  0  0  0  0  0  0
  1  2  1  0
  2  3  1  0
  3  4  2  0
  4  5  1  0
  5  6  1  0
  6  7  1  0
  7  8  1  0
  5  9  2  0
  9  2  1  0
M  END
$$$$
