
     RDKit          3D

  8  8  0  0  0  0  0  0  0  0999 V2000
  -17.4435   34.4479  -23.2011 O   0  0  0  0  0  1  0  0  0  0  0  0
  -17.9445   35.5438  -22.5852 N   0  0  0  0  0  4  0  0  0  0  0  0
  -17.2069   36.6725  -22.5522 C   0  0  0  0  0  0  0  0  0  0  0  0
  -17.6522   37.8321  -21.9412 C   0  0  0  0  0  0  0  0  0  0  0  0
  -18.9170   37.7578  -21.3600 C   0  0  0  0  0  0  0  0  0  0  0  0
  -19.6479   36.5909  -21.4093 C   0  0  0  0  0  0  0  0  0  0  0  0
  -19.1680   35.4552  -22.0287 C   0  0  0  0  0  0  0  0  0  0  0  0
  -20.1432   33.9557  -22.0747 S   0  0  0  0  0  0  0  0  0  0  0  0
  1  2  1  0
  2  3  2  0
  3  4  1  0
  4  5  2  0
  5  6  1  0
  6  7  2  0
  7  8  1  0
  7  2  1  0
M  CHG  2   1  -1   2   1
M  END
$$$$
