
     RDKit          3D

 13 14  0  0  0  0  0  0  0  0999 V2000
  -17.3808   35.1673  -22.2159 C   0  0  0  0  0  0  0  0  0  0  0  0
  -18.7569   35.6375  -22.0184 C   0  0  0  0  0  0  0  0  0  0  0  0
  -19.7914   34.6938  -22.0384 C   0  0  0  0  0  0  0  0  0  0  0  0
  -21.0590   35.2067  -21.8460 C   0  0  0  0  0  0  0  0  0  0  0  0
  -22.0120   34.3939  -21.8571 O   0  0  0  0  0  0  0  0  0  0  0  0
  -21.2915   36.4919  -21.6558 O   0  0  0  0  0  0  0  0  0  0  0  0
  -20.3311   37.3913  -21.6342 C   0  0  0  0  0  0  0  0  0  0  0  0
  -20.5450   38.7334  -21.4385 C   0  0  0  0  0  0  0  0  0  0  0  0
  -19.5434   39.6788  -21.4150 C   0  0  0  0  0  0  0  0  0  0  0  0
  -19.8279   41.0409  -21.2097 O   0  0  0  0  0  0  0  0  0  0  0  0
  -18.2488   39.2489  -21.5994 C   0  0  0  0  0  0  0  0  0  0  0  0
  -17.9935   37.8877  -21.8016 C   0  0  0  0  0  0  0  0  0  0  0  0
  -19.0280   36.9747  -21.8177 C   0  0  0  0  0  0  0  0  0  0  0  0
  1  2  1  0
  2  3  2  0
  3  4  1  0
  4  5  2  0
  4  6  1  0
  6  7  1  0
  7  8  2  0
  8  9  1  0
  9 10  1  0
  9 11  2  0
 11 12  1  0
 12 13  2  0
 13  2  1  0
 13  7  1  0
M  END
$$$$
