
     RDKit          3D

 14 14  0  0  0  0  0  0  0  0999 V2000
  -20.8238   15.4991  -31.6399 C   0  0  0  0  0  0  0  0  0  0  0  0
  -20.0298   16.4362  -30.8717 N   0  0  0  0  0  0  0  0  0  0  0  0
  -20.3696   17.8194  -30.8275 C   0  0  0  0  0  0  0  0  0  0  0  0
  -18.9008   15.9473  -30.1603 C   0  0  0  0  0  0  0  0  0  0  0  0
  -18.2494   16.7357  -29.3915 O   0  0  0  0  0  0  0  0  0  0  0  0
  -18.4786   14.6011  -30.2834 N   0  0  0  0  0  0  0  0  0  0  0  0
  -17.4131   14.1156  -29.4743 C   0  0  0  0  0  0  0  0  0  0  0  0
  -16.9187   12.8517  -29.7434 C   0  0  0  0  0  0  0  0  0  0  0  0
  -15.8878   12.3933  -28.9535 C   0  0  0  0  0  0  0  0  0  0  0  0
  -15.3733   13.1667  -27.9375 C   0  0  0  0  0  0  0  0  0  0  0  0
  -14.0512   12.5999  -26.9114 Cl  0  0  0  0  0  0  0  0  0  0  0  0
  -15.8619   14.4225  -27.6673 C   0  0  0  0  0  0  0  0  0  0  0  0
  -15.2358   15.4370  -26.3853 Cl  0  0  0  0  0  0  0  0  0  0  0  0
  -16.8923   14.8833  -28.4552 C   0  0  0  0  0  0  0  0  0  0  0  0
  1  2  1  0
  2  3  1  0
  2  4  1  0
  4  5  2  0
  4  6  1  0
  6  7  1  0
  7  8  2  0
  8  9  1  0
  9 10  2  0
 10 11  1  0
 10 12  1  0
 12 13  1  0
 12 14  2  0
 14  7  1  0
M  END
$$$$
