
     RDKit          3D

 26 29  0  0  0  0  0  0  0  0999 V2000
  -18.1681   35.2041  -19.3804 C   0  0  0  0  0  0  0  0  0  0  0  0
  -18.9136   35.3704  -20.5497 O   0  0  0  0  0  0  0  0  0  0  0  0
  -19.0312   36.5533  -21.2523 C   0  0  0  0  0  0  0  0  0  0  0  0
  -17.9387   37.1992  -21.7659 C   0  0  0  0  0  0  0  0  0  0  0  0
  -18.0282   38.3792  -22.4697 C   0  0  0  0  0  0  0  0  0  0  0  0
  -19.2654   38.9711  -22.6887 C   0  0  0  0  0  0  0  0  0  0  0  0
  -19.3852   40.2103  -23.4341 C   0  0  0  0  0  0  0  0  0  0  0  0
  -19.9846   40.3838  -24.6278 N   0  0  0  0  0  0  0  0  0  0  0  0
  -19.8997   41.6609  -25.0041 C   0  0  0  0  0  0  0  0  0  0  0  0
  -20.4447   42.2132  -26.2508 C   0  0  0  0  0  0  0  0  0  0  0  0
  -21.1391   41.6145  -27.2358 C   0  0  0  0  0  0  0  0  0  0  0  0
  -21.5383   42.3363  -28.2921 C   0  0  0  0  0  0  0  0  0  0  0  0
  -21.2176   43.6696  -28.3220 C   0  0  0  0  0  0  0  0  0  0  0  0
  -20.3157   43.8494  -26.7674 S   0  0  0  0  0  0  0  0  0  0  0  0
  -19.2467   42.2939  -24.0478 N   0  0  0  0  0  0  0  0  0  0  0  0
  -18.9052   41.4259  -23.0456 C   0  0  0  0  0  0  0  0  0  0  0  0
  -18.1779   41.8654  -21.8760 C   0  0  0  0  0  0  0  0  0  0  0  0
  -18.7109   41.7187  -20.6160 C   0  0  0  0  0  0  0  0  0  0  0  0
  -17.9921   42.1468  -19.4928 C   0  0  0  0  0  0  0  0  0  0  0  0
  -16.7445   42.7218  -19.6028 C   0  0  0  0  0  0  0  0  0  0  0  0
  -16.0479   43.1394  -18.4805 O   0  0  0  0  0  0  0  0  0  0  0  0
  -16.6248   43.0357  -17.2017 C   0  0  0  0  0  0  0  0  0  0  0  0
  -16.2295   42.8590  -20.8777 C   0  0  0  0  0  0  0  0  0  0  0  0
  -16.9154   42.4477  -21.9850 C   0  0  0  0  0  0  0  0  0  0  0  0
  -20.3601   38.3248  -22.1748 C   0  0  0  0  0  0  0  0  0  0  0  0
  -20.2671   37.1470  -21.4725 C   0  0  0  0  0  0  0  0  0  0  0  0
  1  2  1  0
  2  3  1  0
  3  4  2  0
  4  5  1  0
  5  6  2  0
  6  7  1  0
  7  8  1  0
  8  9  2  0
  9 10  1  0
 10 11  2  0
 11 12  1  0
 12 13  2  0
 13 14  1  0
  9 15  1  0
 15 16  1  0
 16 17  1  0
 17 18  2  0
 18 19  1  0
 19 20  2  0
 20 21  1  0
 21 22  1  0
 20 23  1  0
 23 24  2  0
  6 25  1  0
 25 26  2  0
 26  3  1  0
 16  7  2  0
 24 17  1  0
 14 10  1  0
M  END
$$$$
