
     RDKit          3D

 21 22  0  0  0  0  0  0  0  0999 V2000
  -21.5935   18.3446  -32.7811 C   0  0  0  0  0  0  0  0  0  0  0  0
  -20.9002   18.7834  -31.6327 O   0  0  0  0  0  0  0  0  0  0  0  0
  -19.9184   17.9923  -31.0633 C   0  0  0  0  0  0  0  0  0  0  0  0
  -20.2400   16.7289  -30.5968 C   0  0  0  0  0  0  0  0  0  0  0  0
  -19.2474   15.9570  -30.0331 C   0  0  0  0  0  0  0  0  0  0  0  0
  -17.9637   16.4447  -29.9413 C   0  0  0  0  0  0  0  0  0  0  0  0
  -16.9370   15.5691  -29.3253 C   0  0  0  0  0  0  0  0  0  0  0  0
  -16.5041   14.4563  -30.2118 C   0  0  0  0  0  0  0  0  0  0  0  0
  -15.3333   13.8099  -29.6633 N   0  0  0  0  0  0  0  0  0  0  0  0
  -15.3781   12.7770  -28.7019 C   0  0  0  0  0  0  0  0  0  0  0  0
  -16.4693   12.4017  -28.2135 O   0  0  0  0  0  0  0  0  0  0  0  0
  -14.1746   12.0974  -28.2292 C   0  0  0  0  0  0  0  0  0  0  0  0
  -12.8456   12.3060  -28.6314 C   0  0  0  0  0  0  0  0  0  0  0  0
  -11.9138   11.5582  -28.0518 C   0  0  0  0  0  0  0  0  0  0  0  0
  -12.2985   10.6333  -27.1023 C   0  0  0  0  0  0  0  0  0  0  0  0
  -11.4230    9.6831  -26.3204 C   0  0  0  0  0  0  0  0  0  0  0  0
  -14.0244   10.8416  -27.0418 S   0  0  0  0  0  0  0  0  0  0  0  0
  -17.6388   17.6977  -30.4025 C   0  0  0  0  0  0  0  0  0  0  0  0
  -18.6197   18.4774  -30.9669 C   0  0  0  0  0  0  0  0  0  0  0  0
  -18.3325   19.7413  -31.4416 O   0  0  0  0  0  0  0  0  0  0  0  0
  -17.4731   19.8742  -32.5539 C   0  0  0  0  0  0  0  0  0  0  0  0
  1  2  1  0
  2  3  1  0
  3  4  2  0
  4  5  1  0
  5  6  2  0
  6  7  1  0
  7  8  1  0
  8  9  1  0
  9 10  1  0
 10 11  2  0
 10 12  1  0
 12 13  2  0
 13 14  1  0
 14 15  2  0
 15 16  1  0
 15 17  1  0
  6 18  1  0
 18 19  2  0
 19 20  1  0
 20 21  1  0
 19  3  1  0
 17 12  1  0
M  END
$$$$
