
     RDKit          3D

 26 29  0  0  0  0  0  0  0  0999 V2000
  -18.0979   -9.9048  -17.6086 N   0  0  0  0  0  0  0  0  0  0  0  0
  -18.1017   -9.1523  -18.8506 C   0  0  0  0  0  0  0  0  0  0  0  0
  -18.1188   -8.4927  -19.9749 C   0  0  0  0  0  0  0  0  0  0  0  0
  -17.1081   -8.6624  -20.9080 C   0  0  0  0  0  0  0  0  0  0  0  0
  -17.0446   -7.7049  -22.0036 C   0  0  0  0  0  0  0  0  0  0  0  0
  -17.9300   -6.7529  -22.0333 C   0  0  0  0  0  0  0  0  0  0  0  0
  -17.8883   -5.6607  -23.0571 C   0  0  0  0  0  0  0  0  0  0  0  0
  -18.9244   -5.1346  -23.7151 C   0  0  0  0  0  0  0  0  0  0  0  0
  -18.7525   -4.1696  -24.6992 N   0  0  0  0  0  0  0  0  0  0  0  0
  -17.5112   -3.7491  -25.0157 C   0  0  0  0  0  0  0  0  0  0  0  0
  -16.9981   -2.8596  -25.9283 N   0  0  0  0  0  0  0  0  0  0  0  0
  -15.6396   -2.8953  -25.8223 C   0  0  0  0  0  0  0  0  0  0  0  0
  -15.2661   -3.7739  -24.8626 C   0  0  0  0  0  0  0  0  0  0  0  0
  -14.0121   -4.3710  -24.5084 N   0  0  0  0  0  0  0  0  0  0  0  0
  -13.0739   -3.4819  -23.8562 C   0  0  0  0  0  0  0  0  0  0  0  0
  -13.4996   -2.2337  -24.2178 O   0  0  0  0  0  0  0  0  0  0  0  0
  -11.9784   -3.5470  -23.0394 C   0  0  0  0  0  0  0  0  0  0  0  0
  -11.2319   -2.3343  -22.8636 C   0  0  0  0  0  0  0  0  0  0  0  0
  -10.1434   -2.2765  -22.0922 C   0  0  0  0  0  0  0  0  0  0  0  0
   -9.6798   -3.3809  -21.4166 C   0  0  0  0  0  0  0  0  0  0  0  0
  -10.3772   -4.5377  -21.5749 N   0  0  0  0  0  0  0  0  0  0  0  0
  -11.4603   -4.5934  -22.3482 C   0  0  0  0  0  0  0  0  0  0  0  0
  -16.4398   -4.3009  -24.3440 C   0  0  0  0  0  0  0  0  0  0  0  0
  -16.5787   -5.2475  -23.3699 C   0  0  0  0  0  0  0  0  0  0  0  0
  -18.9756   -6.5713  -21.0967 C   0  0  0  0  0  0  0  0  0  0  0  0
  -19.0757   -7.4411  -20.0655 C   0  0  0  0  0  0  0  0  0  0  0  0
  1  2  3  0
  2  3  1  0
  3  4  2  0
  4  5  1  0
  5  6  2  0
  6  7  1  0
  7  8  2  0
  8  9  1  0
  9 10  2  0
 10 11  1  0
 11 12  1  0
 12 13  2  0
 13 14  1  0
 14 15  1  0
 15 16  2  0
 15 17  1  0
 17 18  2  0
 18 19  1  0
 19 20  2  0
 20 21  1  0
 21 22  2  0
 13 23  1  0
 23 24  2  0
  6 25  1  0
 25 26  2  0
 26  3  1  0
 24  7  1  0
 23 10  1  0
 22 17  1  0
M  END
$$$$
