
     RDKit          3D

 32 33  0  0  0  0  0  0  0  0999 V2000
  -12.5940   46.9222  -13.6254 C   0  0  0  0  0  0  0  0  0  0  0  0
  -11.9254   45.6435  -13.2221 C   0  0  0  0  0  0  0  0  0  0  0  0
  -10.6563   45.8832  -12.4463 C   0  0  0  0  0  0  0  0  0  0  0  0
  -12.8734   44.8859  -12.3146 C   0  0  0  0  0  0  0  0  0  0  0  0
  -11.6423   44.8035  -14.3325 O   0  0  0  0  0  0  0  0  0  0  0  0
  -12.6340   44.4649  -15.2584 C   0  0  0  0  0  0  0  0  0  0  0  0
  -13.7597   44.2657  -14.8068 O   0  0  0  0  0  0  0  0  0  0  0  0
  -12.3956   44.3501  -16.6302 N   0  0  0  0  0  0  0  0  0  0  0  0
  -13.2659   43.8774  -17.6339 C   0  0  0  0  0  0  0  0  0  0  0  0
  -12.8182   43.7550  -18.9569 C   0  0  0  0  0  0  0  0  0  0  0  0
  -13.6348   43.2999  -19.9620 C   0  0  0  0  0  0  0  0  0  0  0  0
  -14.9410   42.9357  -19.7375 C   0  0  0  0  0  0  0  0  0  0  0  0
  -15.8139   42.4514  -20.8013 C   0  0  0  0  0  0  0  0  0  0  0  0
  -17.1790   42.7247  -20.9048 C   0  0  0  0  0  0  0  0  0  0  0  0
  -17.6560   42.0936  -22.0408 C   0  0  0  0  0  0  0  0  0  0  0  0
  -19.0164   42.0847  -22.5702 C   0  0  0  0  0  0  0  0  0  0  0  0
  -19.5523   43.1667  -22.8773 O   0  0  0  0  0  0  0  0  0  0  0  0
  -19.7580   40.8909  -22.7509 N   0  0  0  0  0  0  0  0  0  0  0  0
  -20.8237   40.7181  -23.6921 C   0  0  0  0  0  0  0  0  0  0  0  0
  -21.2496   39.2239  -23.7873 C   0  0  0  0  0  0  0  0  0  0  0  0
  -21.5531   38.6955  -22.4470 C   0  0  0  0  0  0  0  0  0  0  0  0
  -20.6879   37.7272  -21.7826 C   0  0  0  0  0  0  0  0  0  0  0  0
  -20.9081   36.2811  -21.7898 C   0  0  0  0  0  0  0  0  0  0  0  0
  -19.9622   35.4022  -21.0728 C   0  0  0  0  0  0  0  0  0  0  0  0
  -20.3870   33.9525  -21.1576 C   0  0  0  0  0  0  0  0  0  0  0  0
  -20.7889   33.5515  -22.2717 O   0  0  0  0  0  0  0  0  0  0  0  0
  -20.3038   33.1538  -19.9880 N   0  0  0  0  0  0  0  0  0  0  0  0
  -20.6312   31.8462  -20.0808 O   0  0  0  0  0  0  0  0  0  0  0  0
  -16.5826   41.4778  -22.5663 N   0  0  0  0  0  0  0  0  0  0  0  0
  -15.5266   41.7009  -21.8285 O   0  0  0  0  0  0  0  0  0  0  0  0
  -15.4054   43.0447  -18.4556 C   0  0  0  0  0  0  0  0  0  0  0  0
  -14.5680   43.5108  -17.4276 C   0  0  0  0  0  0  0  0  0  0  0  0
  1  2  1  0
  2  3  1  0
  2  4  1  0
  2  5  1  0
  5  6  1  0
  6  7  2  0
  6  8  1  0
  8  9  1  0
  9 10  2  0
 10 11  1  0
 11 12  2  0
 12 13  1  0
 13 14  2  0
 14 15  1  0
 15 16  1  0
 16 17  2  0
 16 18  1  0
 18 19  1  0
 19 20  1  0
 20 21  1  0
 21 22  1  0
 22 23  1  0
 23 24  1  0
 24 25  1  0
 25 26  2  0
 25 27  1  0
 27 28  1  0
 15 29  2  0
 29 30  1  0
 12 31  1  0
 31 32  2  0
 32  9  1  0
 30 13  1  0
M  END
$$$$
