
     RDKit          3D

 24 25  0  0  0  0  0  0  0  0999 V2000
  -20.4274   39.0223  -23.8422 N   0  0  0  0  0  0  0  0  0  0  0  0
  -19.7432   38.4407  -22.7232 C   0  0  1  0  0  0  0  0  0  0  0  0
  -18.3208   38.9588  -22.7303 C   0  0  0  0  0  0  0  0  0  0  0  0
  -18.2198   40.0995  -21.7891 C   0  0  0  0  0  0  0  0  0  0  0  0
  -18.1653   39.9776  -20.4282 C   0  0  0  0  0  0  0  0  0  0  0  0
  -18.0717   41.0940  -19.6240 C   0  0  0  0  0  0  0  0  0  0  0  0
  -17.9887   40.8891  -17.5275 I   0  0  0  0  0  0  0  0  0  0  0  0
  -18.0295   42.3655  -20.1512 C   0  0  0  0  0  0  0  0  0  0  0  0
  -17.9375   43.5080  -19.4125 O   0  0  0  0  0  0  0  0  0  0  0  0
  -16.8183   44.0846  -18.9105 C   0  0  0  0  0  0  0  0  0  0  0  0
  -16.9170   45.1322  -18.0297 C   0  0  0  0  0  0  0  0  0  0  0  0
  -15.7899   45.7495  -17.4932 C   0  0  0  0  0  0  0  0  0  0  0  0
  -15.9831   47.3536  -16.1451 I   0  0  0  0  0  0  0  0  0  0  0  0
  -14.5273   45.3150  -17.8406 C   0  0  0  0  0  0  0  0  0  0  0  0
  -13.3846   45.9271  -17.3083 O   0  0  0  0  0  0  0  0  0  0  0  0
  -14.4407   44.2609  -18.7271 C   0  0  0  0  0  0  0  0  0  0  0  0
  -12.5294   43.5834  -19.2696 I   0  0  0  0  0  0  0  0  0  0  0  0
  -15.5681   43.6443  -19.2630 C   0  0  0  0  0  0  0  0  0  0  0  0
  -18.0850   42.4816  -21.5289 C   0  0  0  0  0  0  0  0  0  0  0  0
  -18.0275   44.3745  -22.4328 I   0  0  0  0  0  0  0  0  0  0  0  0
  -18.1782   41.3770  -22.3377 C   0  0  0  0  0  0  0  0  0  0  0  0
  -20.3744   38.7673  -21.4299 C   0  0  0  0  0  0  0  0  0  0  0  0
  -20.9044   39.8887  -21.2537 O   0  0  0  0  0  0  0  0  0  0  0  0
  -20.3964   37.8512  -20.3891 O   0  0  0  0  0  0  0  0  0  0  0  0
  2  1  1  6
  2  3  1  0
  3  4  1  0
  4  5  2  0
  5  6  1  0
  6  7  1  0
  6  8  2  0
  8  9  1  0
  9 10  1  0
 10 11  2  0
 11 12  1  0
 12 13  1  0
 12 14  2  0
 14 15  1  0
 14 16  1  0
 16 17  1  0
 16 18  2  0
  8 19  1  0
 19 20  1  0
 19 21  2  0
  2 22  1  0
 22 23  2  0
 22 24  1  0
 21  4  1  0
 18 10  1  0
M  END
$$$$
