
     RDKit          3D

 17 18  0  0  0  0  0  0  0  0999 V2000
  -19.0438   40.0637  -22.6634 C   0  0  0  0  0  0  0  0  0  0  0  0
  -18.6171   38.8051  -22.0302 C   0  0  0  0  0  0  0  0  0  0  0  0
  -18.7106   37.6302  -22.7581 C   0  0  0  0  0  0  0  0  0  0  0  0
  -18.3396   36.4412  -22.2461 N   0  0  0  0  0  0  0  0  0  0  0  0
  -18.4444   35.2367  -23.0165 C   0  0  1  0  0  0  0  0  0  0  0  0
  -19.7355   34.5037  -22.7827 C   0  0  0  0  0  0  0  0  0  0  0  0
  -20.1507   34.1342  -24.2109 C   0  0  2  0  0  0  0  0  0  0  0  0
  -20.6838   32.8752  -24.2801 O   0  0  0  0  0  0  0  0  0  0  0  0
  -18.8090   34.2613  -24.9071 C   0  0  1  0  0  0  0  0  0  0  0  0
  -18.9438   34.2732  -26.4035 C   0  0  0  0  0  0  0  0  0  0  0  0
  -19.6062   35.4142  -26.7954 O   0  0  0  0  0  0  0  0  0  0  0  0
  -18.3700   35.4835  -24.3993 O   0  0  0  0  0  0  0  0  0  0  0  0
  -17.8708   36.4471  -20.9864 C   0  0  0  0  0  0  0  0  0  0  0  0
  -17.5248   35.3197  -20.5165 O   0  0  0  0  0  0  0  0  0  0  0  0
  -17.7667   37.5694  -20.2514 N   0  0  0  0  0  0  0  0  0  0  0  0
  -18.1311   38.7645  -20.7432 C   0  0  0  0  0  0  0  0  0  0  0  0
  -18.0574   39.8320  -20.1119 O   0  0  0  0  0  0  0  0  0  0  0  0
  1  2  1  0
  2  3  2  0
  3  4  1  0
  5  4  1  1
  5  6  1  0
  6  7  1  0
  7  8  1  1
  7  9  1  0
  9 10  1  6
 10 11  1  0
  9 12  1  0
  4 13  1  0
 13 14  2  0
 13 15  1  0
 15 16  1  0
 16 17  2  0
 16  2  1  0
 12  5  1  0
M  END
$$$$
