
     RDKit          3D

 29 32  0  0  0  0  0  0  0  0999 V2000
  -22.3141   18.0225  -24.5835 C   0  0  0  0  0  0  0  0  0  0  0  0
  -23.6930   17.7565  -24.1505 C   0  0  0  0  0  0  0  0  0  0  0  0
  -24.7114   18.6325  -24.4745 C   0  0  0  0  0  0  0  0  0  0  0  0
  -25.9942   18.3640  -24.0626 C   0  0  0  0  0  0  0  0  0  0  0  0
  -27.0638   19.3182  -24.4170 C   0  0  0  0  0  0  0  0  0  0  0  0
  -26.2331   17.2540  -23.3526 N   0  0  0  0  0  0  0  0  0  0  0  0
  -25.2567   16.3807  -23.0217 C   0  0  0  0  0  0  0  0  0  0  0  0
  -25.6357   14.9061  -22.0772 S   0  0  0  0  0  0  0  0  0  0  0  0
  -27.3941   14.9177  -21.6322 C   0  0  0  0  0  0  0  0  0  0  0  0
  -27.8956   13.5284  -21.4212 C   0  0  0  0  0  0  0  0  0  0  0  0
  -28.9187   13.1827  -22.0627 O   0  0  0  0  0  0  0  0  0  0  0  0
  -27.2806   12.6165  -20.5545 N   0  0  0  0  0  0  0  0  0  0  0  0
  -27.9951   11.4235  -20.0451 C   0  0  0  0  0  0  0  0  0  0  0  0
  -27.9020   10.5081  -19.3781 N   0  0  0  0  0  0  0  0  0  0  0  0
  -28.7939    9.5827  -19.1179 C   0  0  0  0  0  0  0  0  0  0  0  0
  -30.0010    9.7206  -19.7191 C   0  0  0  0  0  0  0  0  0  0  0  0
  -31.2096    8.8585  -19.6401 C   0  0  0  0  0  0  0  0  0  0  0  0
  -31.8932    9.1663  -18.3553 C   0  0  0  0  0  0  0  0  0  0  0  0
  -31.4006    8.5085  -17.2216 C   0  0  0  0  0  0  0  0  0  0  0  0
  -31.9001    8.7373  -15.9668 C   0  0  0  0  0  0  0  0  0  0  0  0
  -32.9160    9.6381  -15.8068 C   0  0  0  0  0  0  0  0  0  0  0  0
  -33.4101   10.2915  -16.9194 C   0  0  0  0  0  0  0  0  0  0  0  0
  -34.4426   11.1943  -16.7799 C   0  0  0  0  0  0  0  0  0  0  0  0
  -34.9755   11.8599  -17.8624 C   0  0  0  0  0  0  0  0  0  0  0  0
  -34.4538   11.6072  -19.1125 C   0  0  0  0  0  0  0  0  0  0  0  0
  -33.4205   10.7116  -19.2949 C   0  0  0  0  0  0  0  0  0  0  0  0
  -32.9034   10.0600  -18.1980 C   0  0  0  0  0  0  0  0  0  0  0  0
  -29.7855   11.1993  -20.6436 S   0  0  0  0  0  0  0  0  0  0  0  0
  -24.0112   16.6624  -23.4339 N   0  0  0  0  0  0  0  0  0  0  0  0
  1  2  1  0
  2  3  2  0
  3  4  1  0
  4  5  1  0
  4  6  2  0
  6  7  1  0
  7  8  1  0
  8  9  1  0
  9 10  1  0
 10 11  2  0
 10 12  1  0
 12 13  1  0
 13 14  2  0
 14 15  1  0
 15 16  2  0
 16 17  1  0
 17 18  1  0
 18 19  2  0
 19 20  1  0
 20 21  2  0
 21 22  1  0
 22 23  2  0
 23 24  1  0
 24 25  2  0
 25 26  1  0
 26 27  2  0
 16 28  1  0
  7 29  2  0
 29  2  1  0
 28 13  1  0
 27 18  1  0
 27 22  1  0
M  END
$$$$
