
     RDKit          3D

 19 20  0  0  0  0  0  0  0  0999 V2000
  -20.6391   38.2391  -19.0681 C   0  0  0  0  0  0  0  0  0  0  0  0
  -19.9687   38.4692  -20.4018 C   0  0  0  0  0  0  0  0  0  0  0  0
  -20.1840   37.7487  -21.5033 O   0  0  0  0  0  0  0  0  0  0  0  0
  -19.4592   38.1936  -22.4855 N   0  0  0  0  0  0  0  0  0  0  0  0
  -18.7173   39.2357  -22.1006 C   0  0  0  0  0  0  0  0  0  0  0  0
  -19.0501   39.4128  -20.7448 C   0  0  0  0  0  0  0  0  0  0  0  0
  -18.4493   40.4699  -19.9150 C   0  0  0  0  0  0  0  0  0  0  0  0
  -18.1249   40.1971  -18.7109 O   0  0  0  0  0  0  0  0  0  0  0  0
  -18.1990   41.7786  -20.3733 N   0  0  0  0  0  0  0  0  0  0  0  0
  -17.1300   42.6103  -19.9905 C   0  0  0  0  0  0  0  0  0  0  0  0
  -16.5983   43.6431  -20.6799 C   0  0  0  0  0  0  0  0  0  0  0  0
  -15.5537   44.4258  -20.1853 C   0  0  0  0  0  0  0  0  0  0  0  0
  -15.0003   44.1979  -18.9660 C   0  0  0  0  0  0  0  0  0  0  0  0
  -13.9256   45.0070  -18.3724 C   0  0  0  0  0  0  0  0  0  0  0  0
  -12.8537   44.1546  -18.1284 F   0  0  0  0  0  0  0  0  0  0  0  0
  -13.5913   46.0405  -19.2182 F   0  0  0  0  0  0  0  0  0  0  0  0
  -14.3116   45.5641  -17.1530 F   0  0  0  0  0  0  0  0  0  0  0  0
  -15.5267   43.1354  -18.2300 C   0  0  0  0  0  0  0  0  0  0  0  0
  -16.5522   42.3782  -18.7348 C   0  0  0  0  0  0  0  0  0  0  0  0
  1  2  1  0
  2  3  1  0
  3  4  1  0
  4  5  2  0
  5  6  1  0
  6  7  1  0
  7  8  2  0
  7  9  1  0
  9 10  1  0
 10 11  2  0
 11 12  1  0
 12 13  2  0
 13 14  1  0
 14 15  1  0
 14 16  1  0
 14 17  1  0
 13 18  1  0
 18 19  2  0
  6  2  2  0
 19 10  1  0
M  END
$$$$
