
     RDKit          3D

 31 35  0  0  0  0  0  0  0  0999 V2000
  -18.1383   40.6683  -18.4539 N   0  0  0  0  0  0  0  0  0  0  0  0
  -17.4408   41.7773  -19.0245 C   0  0  0  0  0  0  0  0  0  0  0  0
  -16.3080   42.3138  -18.4504 C   0  0  0  0  0  0  0  0  0  0  0  0
  -15.6333   41.8942  -17.2312 C   0  0  0  0  0  0  0  0  0  0  0  0
  -16.0706   40.9146  -16.5749 O   0  0  0  0  0  0  0  0  0  0  0  0
  -14.4775   42.5483  -16.7293 N   0  0  0  0  0  0  0  0  0  0  0  0
  -13.8492   42.0621  -15.5120 C   0  0  0  0  0  0  0  0  0  0  0  0
  -12.5530   41.4260  -15.7819 C   0  0  0  0  0  0  0  0  0  0  0  0
  -12.1662   40.1806  -15.3778 C   0  0  0  0  0  0  0  0  0  0  0  0
  -10.8714   39.9640  -15.8397 C   0  0  0  0  0  0  0  0  0  0  0  0
  -10.5483   41.1424  -16.5207 C   0  0  0  0  0  0  0  0  0  0  0  0
  -11.5715   41.9536  -16.4496 O   0  0  0  0  0  0  0  0  0  0  0  0
  -15.9164   43.3532  -19.2654 C   0  0  0  0  0  0  0  0  0  0  0  0
  -14.9143   44.2508  -19.2594 N   0  0  0  0  0  0  0  0  0  0  0  0
  -14.7535   45.1903  -20.2025 C   0  0  0  0  0  0  0  0  0  0  0  0
  -13.7318   46.0935  -20.1820 C   0  0  0  0  0  0  0  0  0  0  0  0
  -13.5626   47.0590  -21.1469 C   0  0  0  0  0  0  0  0  0  0  0  0
  -14.4609   47.1298  -22.1911 C   0  0  0  0  0  0  0  0  0  0  0  0
  -15.4951   46.2214  -22.2187 C   0  0  0  0  0  0  0  0  0  0  0  0
  -15.6626   45.2601  -21.2571 C   0  0  0  0  0  0  0  0  0  0  0  0
  -16.6607   44.3673  -21.2645 N   0  0  0  0  0  0  0  0  0  0  0  0
  -16.8348   43.4177  -20.3237 C   0  0  0  0  0  0  0  0  0  0  0  0
  -17.7497   42.4488  -20.1517 N   0  0  0  0  0  0  0  0  0  0  0  0
  -18.8533   42.2137  -21.0525 C   0  0  0  0  0  0  0  0  0  0  0  0
  -18.3384   41.5163  -22.2847 C   0  0  0  0  0  0  0  0  0  0  0  0
  -19.1033   40.3534  -22.6307 N   0  0  0  0  0  0  0  0  0  0  0  0
  -18.9876   40.1535  -24.0643 C   0  0  0  0  0  0  0  0  0  0  0  0
  -20.1070   40.9805  -24.7072 C   0  0  0  0  0  0  0  0  0  0  0  0
  -21.3771   40.1628  -24.5339 C   0  0  0  0  0  0  0  0  0  0  0  0
  -21.4058   39.6583  -23.1228 C   0  0  0  0  0  0  0  0  0  0  0  0
  -20.4729   40.4143  -22.2119 C   0  0  0  0  0  0  0  0  0  0  0  0
  1  2  1  0
  2  3  2  0
  3  4  1  0
  4  5  2  0
  4  6  1  0
  6  7  1  0
  7  8  1  0
  8  9  2  0
  9 10  1  0
 10 11  2  0
 11 12  1  0
  3 13  1  0
 13 14  2  0
 14 15  1  0
 15 16  2  0
 16 17  1  0
 17 18  2  0
 18 19  1  0
 19 20  2  0
 20 21  1  0
 21 22  2  0
 22 23  1  0
 23 24  1  0
 24 25  1  0
 25 26  1  0
 26 27  1  0
 27 28  1  0
 28 29  1  0
 29 30  1  0
 30 31  1  0
 23  2  1  0
 31 26  1  0
 12  8  1  0
 22 13  1  0
 20 15  1  0
M  END
$$$$
