
     RDKit          3D

 14 13  0  0  0  0  0  0  0  0999 V2000
  -19.2976   36.5646  -21.8888 Cl  0  0  0  0  0  0  0  0  0  0  0  0
  -19.3002   36.5638  -21.8894 Cl  0  0  0  0  0  0  0  0  0  0  0  0
  -20.3642   33.6966  -21.7298 N   0  0  0  0  0  0  0  0  0  0  0  0
  -20.6391   35.0534  -22.0510 C   0  0  0  0  0  0  0  0  0  0  0  0
  -21.8786   35.4692  -22.4838 C   0  0  0  0  0  0  0  0  0  0  0  0
  -22.1272   36.7900  -22.7910 C   0  0  0  0  0  0  0  0  0  0  0  0
  -21.1488   37.7541  -22.6798 C   0  0  0  0  0  0  0  0  0  0  0  0
  -21.4473   39.0707  -23.0007 O   0  0  0  0  0  0  0  0  0  0  0  0
  -19.9103   37.3345  -22.2466 C   0  0  0  0  0  0  0  0  0  0  0  0
  -18.9283   38.2520  -22.1260 N   0  0  0  0  0  0  0  0  0  0  0  0
  -17.6819   37.9239  -21.7069 C   0  0  0  0  0  0  0  0  0  0  0  0
  -17.3733   36.6184  -21.3850 C   0  0  0  0  0  0  0  0  0  0  0  0
  -18.3778   35.6605  -21.5050 C   0  0  0  0  0  0  0  0  0  0  0  0
  -19.6426   36.0144  -21.9339 C   0  0  0  0  0  0  0  0  0  0  0  0
  3  4  1  0
  4  5  2  0
  5  6  1  0
  6  7  2  0
  7  8  1  0
  7  9  1  0
  9 10  2  0
 10 11  1  0
 11 12  2  0
 12 13  1  0
 13 14  2  0
 14  4  1  0
 14  9  1  0
M  END
$$$$
