
     RDKit          3D

 23 24  0  0  0  0  0  0  0  0999 V2000
  -18.3534   18.7941  -36.2709 O   0  0  0  0  0  0  0  0  0  0  0  0
  -17.6268   19.1585  -37.2397 C   0  0  0  0  0  0  0  0  0  0  0  0
  -16.2194   19.1272  -36.9196 N   0  0  0  0  0  0  0  0  0  0  0  0
  -15.8402   19.0594  -35.5249 C   0  0  0  0  0  0  0  0  0  0  0  0
  -15.2669   17.7402  -35.1380 C   0  0  2  0  0  0  0  0  0  0  0  0
  -16.2070   16.7463  -35.3356 O   0  0  0  0  0  0  0  0  0  0  0  0
  -14.8620   17.8231  -33.6733 C   0  0  0  0  0  0  0  0  0  0  0  0
  -14.4705   16.5466  -33.2444 O   0  0  0  0  0  0  0  0  0  0  0  0
  -18.0988   19.5689  -38.5384 C   0  0  0  0  0  0  0  0  0  0  0  0
  -17.2077   20.0310  -39.4846 C   0  0  0  0  0  0  0  0  0  0  0  0
  -17.6394   20.4407  -40.7538 C   0  0  0  0  0  0  0  0  0  0  0  0
  -18.9369   20.3873  -41.0661 N   0  0  0  0  0  0  0  0  0  0  0  0
  -19.8282   19.9445  -40.1738 C   0  0  0  0  0  0  0  0  0  0  0  0
  -19.4105   19.5296  -38.8938 C   0  0  0  0  0  0  0  0  0  0  0  0
  -20.4110   19.0921  -38.0015 N   0  0  0  0  0  0  0  0  0  0  0  0
  -21.7615   18.8948  -38.5066 C   0  0  0  0  0  0  0  0  0  0  0  0
  -21.9963   17.9318  -39.4745 C   0  0  0  0  0  0  0  0  0  0  0  0
  -23.2615   17.6888  -39.9662 C   0  0  0  0  0  0  0  0  0  0  0  0
  -24.3090   18.4348  -39.4685 C   0  0  0  0  0  0  0  0  0  0  0  0
  -26.2704   18.0878  -40.2027 I   0  0  0  0  0  0  0  0  0  0  0  0
  -24.0605   19.3808  -38.5137 C   0  0  0  0  0  0  0  0  0  0  0  0
  -22.7923   19.6397  -38.0060 C   0  0  0  0  0  0  0  0  0  0  0  0
  -22.5861   20.5778  -37.0532 F   0  0  0  0  0  0  0  0  0  0  0  0
  1  2  2  0
  2  3  1  0
  3  4  1  0
  4  5  1  0
  5  6  1  1
  5  7  1  0
  7  8  1  0
  2  9  1  0
  9 10  2  0
 10 11  1  0
 11 12  2  0
 12 13  1  0
 13 14  2  0
 14 15  1  0
 15 16  1  0
 16 17  2  0
 17 18  1  0
 18 19  2  0
 19 20  1  0
 19 21  1  0
 21 22  2  0
 22 23  1  0
 14  9  1  0
 22 16  1  0
M  END
$$$$
