
     RDKit          3D

 12 14  0  0  0  0  0  0  0  0999 V2000
  -18.9146   39.2468  -20.3923 O   0  0  0  0  0  0  0  0  0  0  0  0
  -18.4625   38.2079  -20.9075 C   0  0  0  0  0  0  0  0  0  0  0  0
  -17.1023   38.0261  -21.0625 O   0  0  0  0  0  0  0  0  0  0  0  0
  -19.3940   37.1669  -21.3535 C   0  0  0  0  0  0  0  0  0  0  0  0
  -20.7165   37.1038  -21.2255 N   0  0  0  0  0  0  0  0  0  0  0  0
  -21.2326   36.0194  -21.7458 N   0  0  0  0  0  0  0  0  0  0  0  0
  -20.2075   35.3136  -22.2511 C   0  0  0  0  0  0  0  0  0  0  0  0
  -19.0325   35.9962  -22.0277 C   0  0  0  0  0  0  0  0  0  0  0  0
  -17.8653   35.2736  -22.5592 C   0  0  0  0  0  0  0  0  0  0  0  0
  -18.4606   34.0988  -23.2664 C   0  0  1  0  0  0  0  0  0  0  0  0
  -19.0496   33.0475  -22.3805 C   0  0  0  0  0  0  0  0  0  0  0  0
  -19.9261   34.0576  -22.9616 C   0  0  1  0  0  0  0  0  0  0  0  0
  1  2  2  0
  2  3  1  0
  2  4  1  0
  4  5  2  0
  5  6  1  0
  6  7  1  0
  7  8  2  0
  8  9  1  0
 10  9  1  1
 10 11  1  0
 12 11  1  1
  8  4  1  0
 12 10  1  0
 12  7  1  0
M  END
$$$$
