
     RDKit          3D

 33 35  0  0  0  0  0  0  0  0999 V2000
  -27.4179   14.1613  -23.7256 O   0  0  0  0  0  0  0  0  0  0  0  0
  -27.2055   15.3962  -23.6754 C   0  0  0  0  0  0  0  0  0  0  0  0
  -25.9980   15.9835  -23.0955 C   0  0  0  0  0  0  0  0  0  0  0  0
  -25.6242   17.2787  -23.7351 C   0  0  0  0  0  0  0  0  0  0  0  0
  -24.3155   17.8471  -23.3041 C   0  0  0  0  0  0  0  0  0  0  0  0
  -23.9459   19.1260  -24.0067 C   0  0  0  0  0  0  0  0  0  0  0  0
  -23.8508   18.8969  -25.5023 C   0  0  0  0  0  0  0  0  0  0  0  0
  -23.1750   20.0969  -26.1267 C   0  0  0  0  0  0  0  0  0  0  0  0
  -21.9826   19.7784  -26.8639 N   0  0  0  0  0  0  0  0  0  0  0  0
  -21.9866   19.5537  -28.2799 C   0  0  0  0  0  0  0  0  0  0  0  0
  -22.7635   20.2559  -28.9710 O   0  0  0  0  0  0  0  0  0  0  0  0
  -21.1536   18.5731  -28.9453 C   0  0  0  0  0  0  0  0  0  0  0  0
  -21.7452   17.6506  -29.7785 C   0  0  0  0  0  0  0  0  0  0  0  0
  -21.0362   16.7223  -30.4252 N   0  0  0  0  0  0  0  0  0  0  0  0
  -19.7094   16.6595  -30.2809 C   0  0  0  0  0  0  0  0  0  0  0  0
  -19.0363   15.6526  -31.0176 N   0  0  0  0  0  0  0  0  0  0  0  0
  -17.7747   15.1748  -30.5884 C   0  0  0  0  0  0  0  0  0  0  0  0
  -17.6240   14.7209  -29.2655 C   0  0  0  0  0  0  0  0  0  0  0  0
  -16.4251   14.2588  -28.7713 C   0  0  0  0  0  0  0  0  0  0  0  0
  -15.3148   14.2268  -29.5741 C   0  0  0  0  0  0  0  0  0  0  0  0
  -15.4206   14.6627  -30.8753 C   0  0  0  0  0  0  0  0  0  0  0  0
  -16.6384   15.1230  -31.3479 C   0  0  0  0  0  0  0  0  0  0  0  0
  -19.6290   15.1022  -32.2141 C   0  0  0  0  0  0  0  0  0  0  0  0
  -19.3463   15.6840  -33.4283 C   0  0  0  0  0  0  0  0  0  0  0  0
  -19.9276   15.1356  -34.5639 C   0  0  0  0  0  0  0  0  0  0  0  0
  -20.7687   14.0350  -34.4843 C   0  0  0  0  0  0  0  0  0  0  0  0
  -21.0461   13.4589  -33.2632 C   0  0  0  0  0  0  0  0  0  0  0  0
  -20.4638   14.0098  -32.1354 C   0  0  0  0  0  0  0  0  0  0  0  0
  -20.8241   13.2693  -30.5949 Cl  0  0  0  0  0  0  0  0  0  0  0  0
  -19.1349   17.5493  -29.4765 N   0  0  0  0  0  0  0  0  0  0  0  0
  -19.7876   18.5031  -28.8009 C   0  0  0  0  0  0  0  0  0  0  0  0
  -28.2375   16.2239  -24.2315 N   0  0  0  0  0  0  0  0  0  0  0  0
  -29.4281   15.6950  -24.5980 O   0  0  0  0  0  0  0  0  0  0  0  0
  1  2  2  0
  2  3  1  0
  3  4  1  0
  4  5  1  0
  5  6  1  0
  6  7  1  0
  7  8  1  0
  8  9  1  0
  9 10  1  0
 10 11  2  0
 10 12  1  0
 12 13  2  0
 13 14  1  0
 14 15  2  0
 15 16  1  0
 16 17  1  0
 17 18  2  0
 18 19  1  0
 19 20  2  0
 20 21  1  0
 21 22  2  0
 16 23  1  0
 23 24  2  0
 24 25  1  0
 25 26  2  0
 26 27  1  0
 27 28  2  0
 28 29  1  0
 15 30  1  0
 30 31  2  0
  2 32  1  0
 32 33  1  0
 31 12  1  0
 22 17  1  0
 28 23  1  0
M  END
$$$$
