
     RDKit          3D

 35 38  0  0  0  0  0  0  0  0999 V2000
  -35.8131   10.3535  -20.1104 C   0  0  0  0  0  0  0  0  0  0  0  0
  -34.6356   10.0219  -19.2437 C   0  0  0  0  0  0  0  0  0  0  0  0
  -34.3555    8.5299  -19.3952 C   0  0  0  0  0  0  0  0  0  0  0  0
  -35.0082   10.3333  -17.8095 C   0  0  0  0  0  0  0  0  0  0  0  0
  -33.4060   10.8132  -19.5459 C   0  0  0  0  0  0  0  0  0  0  0  0
  -32.8404   11.5161  -20.2519 N   0  0  0  0  0  0  0  0  0  0  0  0
  -31.6440   12.0594  -20.1611 C   0  0  0  0  0  0  0  0  0  0  0  0
  -31.0863   12.9623  -21.2089 C   0  0  0  0  0  0  0  0  0  0  0  0
  -30.7424   14.2445  -20.8595 C   0  0  0  0  0  0  0  0  0  0  0  0
  -30.2256   15.1072  -21.7910 C   0  0  0  0  0  0  0  0  0  0  0  0
  -30.0623   14.6473  -23.0874 C   0  0  0  0  0  0  0  0  0  0  0  0
  -30.3861   13.3813  -23.4986 C   0  0  0  0  0  0  0  0  0  0  0  0
  -30.2100   12.8895  -24.8060 N   0  0  0  0  0  0  0  0  0  0  0  0
  -28.9161   11.9637  -25.4131 S   0  0  0  0  0  6  0  0  0  0  0  0
  -27.6232   12.6920  -25.0614 O   0  0  0  0  0  0  0  0  0  0  0  0
  -28.9310   11.8912  -26.9212 O   0  0  0  0  0  0  0  0  0  0  0  0
  -28.7791   10.3565  -24.7651 C   0  0  0  0  0  0  0  0  0  0  0  0
  -27.7582   10.0023  -23.8817 C   0  0  0  0  0  0  0  0  0  0  0  0
  -26.8463   10.9540  -23.5667 F   0  0  0  0  0  0  0  0  0  0  0  0
  -27.6961    8.7346  -23.3627 C   0  0  0  0  0  0  0  0  0  0  0  0
  -28.6224    7.7591  -23.6799 C   0  0  0  0  0  0  0  0  0  0  0  0
  -29.6344    8.0875  -24.5472 C   0  0  0  0  0  0  0  0  0  0  0  0
  -29.6912    9.3577  -25.0632 C   0  0  0  0  0  0  0  0  0  0  0  0
  -30.6882    9.6852  -25.9192 F   0  0  0  0  0  0  0  0  0  0  0  0
  -30.9105   12.5465  -22.4971 C   0  0  0  0  0  0  0  0  0  0  0  0
  -31.2529   11.2861  -22.8233 F   0  0  0  0  0  0  0  0  0  0  0  0
  -30.9287   11.7624  -19.0628 C   0  0  0  0  0  0  0  0  0  0  0  0
  -29.6236   12.0997  -18.5319 C   0  0  0  0  0  0  0  0  0  0  0  0
  -28.7885   13.0244  -19.1736 C   0  0  0  0  0  0  0  0  0  0  0  0
  -27.5538   13.3403  -18.6687 C   0  0  0  0  0  0  0  0  0  0  0  0
  -27.1602   12.7435  -17.5432 N   0  0  0  0  0  0  0  0  0  0  0  0
  -27.9245   11.8522  -16.8934 C   0  0  0  0  0  0  0  0  0  0  0  0
  -27.4255   11.2635  -15.6991 N   0  0  0  0  0  0  0  0  0  0  0  0
  -29.1280   11.5583  -17.4048 N   0  0  0  0  0  0  0  0  0  0  0  0
  -32.1267   10.6313  -18.1684 S   0  0  0  0  0  0  0  0  0  0  0  0
  1  2  1  0
  2  3  1  0
  2  4  1  0
  2  5  1  0
  5  6  2  0
  6  7  1  0
  7  8  1  0
  8  9  2  0
  9 10  1  0
 10 11  2  0
 11 12  1  0
 12 13  1  0
 13 14  1  0
 14 15  2  0
 14 16  2  0
 14 17  1  0
 17 18  2  0
 18 19  1  0
 18 20  1  0
 20 21  2  0
 21 22  1  0
 22 23  2  0
 23 24  1  0
 12 25  2  0
 25 26  1  0
  7 27  2  0
 27 28  1  0
 28 29  2  0
 29 30  1  0
 30 31  2  0
 31 32  1  0
 32 33  1  0
 32 34  2  0
 27 35  1  0
 35  5  1  0
 25  8  1  0
 34 28  1  0
 23 17  1  0
M  END
$$$$
