
     RDKit          3D

 31 36  0  0  0  0  0  0  0  0999 V2000
  -17.6665   38.2775  -21.7297 C   0  0  0  0  0  0  0  0  0  0  0  0
  -18.9985   38.9067  -21.7224 C   0  0  0  0  0  0  0  0  0  0  0  0
  -19.0568   40.2229  -21.6640 C   0  0  0  0  0  0  0  0  0  0  0  0
  -18.0472   41.2682  -21.6006 C   0  0  0  0  0  0  0  0  0  0  0  0
  -16.8185   41.0417  -21.4710 O   0  0  0  0  0  0  0  0  0  0  0  0
  -18.7386   42.5488  -21.7139 C   0  0  1  0  0  0  0  0  0  0  0  0
  -20.0727   42.2573  -21.0109 C   0  0  1  0  0  0  0  0  0  0  0  0
  -21.0092   43.3559  -21.3851 C   0  0  0  0  0  0  0  0  0  0  0  0
  -20.3315   44.6951  -21.2700 C   0  0  0  0  0  0  0  0  0  0  0  0
  -19.0424   44.8410  -21.0927 C   0  0  0  0  0  0  0  0  0  0  0  0
  -18.4773   46.2121  -20.9926 C   0  0  0  0  0  0  0  0  0  0  0  0
  -17.0650   46.2280  -20.4910 C   0  0  1  0  0  0  0  0  0  0  0  0
  -17.0047   46.1405  -19.0952 O   0  0  0  0  0  0  0  0  0  0  0  0
  -16.1468   45.2788  -21.1839 C   0  0  0  0  0  0  0  0  0  0  0  0
  -16.8438   44.0872  -21.7481 C   0  0  0  0  0  0  0  0  0  0  0  0
  -18.0900   43.6922  -20.9854 C   0  0  2  0  0  0  0  0  0  0  0  0
  -17.8028   43.3012  -19.5745 C   0  0  0  0  0  0  0  0  0  0  0  0
  -20.3964   40.9243  -21.6506 C   0  0  0  0  0  0  0  0  0  0  0  0
  -21.2769   40.0467  -20.7942 C   0  0  0  0  0  0  0  0  0  0  0  0
  -21.4951   38.7697  -21.6127 C   0  0  0  0  0  0  0  0  0  0  0  0
  -20.2080   38.0357  -21.7766 C   0  0  2  0  0  0  0  0  0  0  0  0
  -20.1410   37.0961  -20.7221 O   0  0  0  0  0  0  0  0  0  0  0  0
  -20.8210   36.0224  -21.2117 C   0  0  2  0  0  0  0  0  0  0  0  0
  -20.6919   34.7517  -20.4609 C   0  0  0  0  0  0  0  0  0  0  0  0
  -21.4406   33.6935  -21.2847 C   0  0  2  0  0  0  0  0  0  0  0  0
  -21.5397   32.3886  -20.5813 C   0  0  0  0  0  0  0  0  0  0  0  0
  -20.8025   33.6020  -22.6430 C   0  0  0  0  0  0  0  0  0  0  0  0
  -20.9097   34.8982  -23.3055 N   0  0  0  0  0  0  0  0  0  0  0  0
  -20.1184   35.8231  -22.5642 C   0  0  1  0  0  0  0  0  0  0  0  0
  -20.1432   37.2315  -23.0615 C   0  0  1  0  0  0  0  0  0  0  0  0
  -21.4164   37.3972  -23.8857 C   0  0  0  0  0  0  0  0  0  0  0  0
  1  2  1  0
  2  3  2  0
  3  4  1  0
  4  5  2  0
  6  4  1  1
  6  7  1  0
  7  8  1  6
  8  9  1  0
  9 10  2  0
 10 11  1  0
 11 12  1  0
 12 13  1  1
 12 14  1  0
 14 15  1  0
 15 16  1  0
 16 17  1  1
  7 18  1  0
 18 19  1  0
 19 20  1  0
 21 20  1  6
 21 22  1  0
 22 23  1  0
 23 24  1  1
 24 25  1  0
 25 26  1  1
 25 27  1  0
 27 28  1  0
 29 28  1  6
 29 30  1  0
 30 31  1  6
 21  2  1  0
 29 23  1  0
 18  3  1  0
 30 21  1  0
 16  6  1  0
 16 10  1  0
M  END
$$$$
