
     RDKit          3D

 26 29  0  0  0  0  0  0  0  0999 V2000
  -20.0567   33.7498  -21.6868 C   0  0  0  0  0  0  0  0  0  0  0  0
  -19.5106   34.7872  -23.0103 S   0  0  0  0  0  6  0  0  0  0  0  0
  -20.5564   34.7766  -24.1022 O   0  0  0  0  0  0  0  0  0  0  0  0
  -18.2386   34.2562  -23.6008 O   0  0  0  0  0  0  0  0  0  0  0  0
  -19.2223   36.4208  -22.4517 C   0  0  0  0  0  0  0  0  0  0  0  0
  -20.2533   37.2165  -22.0021 C   0  0  0  0  0  0  0  0  0  0  0  0
  -19.9947   38.5075  -21.5658 C   0  0  0  0  0  0  0  0  0  0  0  0
  -18.7222   39.0397  -21.5629 C   0  0  0  0  0  0  0  0  0  0  0  0
  -18.5514   40.3999  -21.0877 C   0  0  0  0  0  0  0  0  0  0  0  0
  -18.1823   41.4336  -21.9262 C   0  0  0  0  0  0  0  0  0  0  0  0
  -18.0314   42.6847  -21.4671 N   0  0  0  0  0  0  0  0  0  0  0  0
  -18.2339   42.9760  -20.1762 C   0  0  0  0  0  0  0  0  0  0  0  0
  -18.0780   44.2951  -19.6790 N   0  0  0  0  0  0  0  0  0  0  0  0
  -17.6669   45.3767  -20.5508 C   0  0  0  0  0  0  0  0  0  0  0  0
  -16.1953   45.3912  -20.7097 C   0  0  0  0  0  0  0  0  0  0  0  0
  -15.2550   45.2723  -19.7218 C   0  0  0  0  0  0  0  0  0  0  0  0
  -14.0158   45.3404  -20.3320 C   0  0  0  0  0  0  0  0  0  0  0  0
  -14.2691   45.4992  -21.6756 C   0  0  0  0  0  0  0  0  0  0  0  0
  -15.5681   45.5215  -21.8334 O   0  0  0  0  0  0  0  0  0  0  0  0
  -18.5964   42.0001  -19.3139 N   0  0  0  0  0  0  0  0  0  0  0  0
  -18.8621   42.0145  -17.9725 C   0  0  0  0  0  0  0  0  0  0  0  0
  -19.1764   40.7542  -17.6252 N   0  0  0  0  0  0  0  0  0  0  0  0
  -19.1070   39.9969  -18.7057 N   0  0  0  0  0  0  0  0  0  0  0  0
  -18.7523   40.7417  -19.7551 C   0  0  0  0  0  0  0  0  0  0  0  0
  -17.7078   38.2362  -22.0128 C   0  0  0  0  0  0  0  0  0  0  0  0
  -17.9335   36.9494  -22.4525 C   0  0  0  0  0  0  0  0  0  0  0  0
  1  2  1  0
  2  3  2  0
  2  4  2  0
  2  5  1  0
  5  6  2  0
  6  7  1  0
  7  8  2  0
  8  9  1  0
  9 10  2  0
 10 11  1  0
 11 12  2  0
 12 13  1  0
 13 14  1  0
 14 15  1  0
 15 16  2  0
 16 17  1  0
 17 18  2  0
 18 19  1  0
 12 20  1  0
 20 21  1  0
 21 22  2  0
 22 23  1  0
 23 24  2  0
  8 25  1  0
 25 26  2  0
 26  5  1  0
 24  9  1  0
 19 15  1  0
 24 20  1  0
M  END
$$$$
