
     RDKit          3D

 27 29  0  0  0  0  0  0  0  0999 V2000
   -8.3216   43.8883  -12.4501 C   0  0  0  0  0  0  0  0  0  0  0  0
   -8.5883   42.6676  -12.9698 C   0  0  0  0  0  0  0  0  0  0  0  0
   -9.8068   42.6054  -13.7482 C   0  0  0  0  0  0  0  0  0  0  0  0
  -10.4678   43.7591  -14.1053 C   0  0  0  0  0  0  0  0  0  0  0  0
  -11.6584   43.7040  -14.7951 C   0  0  0  0  0  0  0  0  0  0  0  0
  -12.2531   42.5201  -15.1667 C   0  0  0  0  0  0  0  0  0  0  0  0
  -13.5115   42.4387  -15.8971 C   0  0  0  0  0  0  0  0  0  0  0  0
  -14.0647   41.3475  -16.1036 O   0  0  0  0  0  0  0  0  0  0  0  0
  -14.0709   43.6160  -16.3535 O   0  0  0  0  0  0  0  0  0  0  0  0
  -11.5752   41.3778  -14.8011 C   0  0  0  0  0  0  0  0  0  0  0  0
  -12.1418   40.1877  -15.1567 F   0  0  0  0  0  0  0  0  0  0  0  0
  -10.3829   41.4072  -14.1097 C   0  0  0  0  0  0  0  0  0  0  0  0
   -7.7264   41.5493  -12.6713 C   0  0  0  0  0  0  0  0  0  0  0  0
   -6.4427   41.5950  -13.2443 C   0  0  0  0  0  0  0  0  0  0  0  0
   -5.5267   40.5770  -13.1475 C   0  0  0  0  0  0  0  0  0  0  0  0
   -5.9167   39.4613  -12.4428 C   0  0  0  0  0  0  0  0  0  0  0  0
   -7.1693   39.3962  -11.8756 C   0  0  0  0  0  0  0  0  0  0  0  0
   -8.1049   40.4408  -11.9794 C   0  0  0  0  0  0  0  0  0  0  0  0
   -9.4646   40.1774  -11.4147 C   0  0  0  0  0  0  0  0  0  0  0  0
   -4.9407   38.3491  -12.3262 C   0  0  0  0  0  0  0  0  0  0  0  0
   -5.7223   37.0733  -11.9781 C   0  0  0  0  0  0  0  0  0  0  0  0
   -3.9151   38.5412  -11.2578 C   0  0  0  0  0  0  0  0  0  0  0  0
   -4.2746   38.1228  -13.6497 C   0  0  0  0  0  0  0  0  0  0  0  0
   -3.6579   39.3423  -14.2469 C   0  0  0  0  0  0  0  0  0  0  0  0
   -4.1758   40.6403  -13.7538 C   0  0  0  0  0  0  0  0  0  0  0  0
   -4.3013   41.5762  -14.9667 C   0  0  0  0  0  0  0  0  0  0  0  0
   -3.1792   41.3133  -12.8273 C   0  0  0  0  0  0  0  0  0  0  0  0
  1  2  2  0
  2  3  1  0
  3  4  2  0
  4  5  1  0
  5  6  2  0
  6  7  1  0
  7  8  2  0
  7  9  1  0
  6 10  1  0
 10 11  1  0
 10 12  2  0
  2 13  1  0
 13 14  2  0
 14 15  1  0
 15 16  2  0
 16 17  1  0
 17 18  2  0
 18 19  1  0
 16 20  1  0
 20 21  1  0
 20 22  1  0
 20 23  1  0
 23 24  1  0
 24 25  1  0
 25 26  1  0
 25 27  1  0
 12  3  1  0
 18 13  1  0
 25 15  1  0
M  END
$$$$
