
     RDKit          3D

 14 14  0  0  0  0  0  0  0  0999 V2000
  -20.5341   40.0034  -22.1101 N   0  0  0  0  0  0  0  0  0  0  0  0
  -19.0855   40.1561  -22.0338 C   0  0  1  0  0  0  0  0  0  0  0  0
  -18.6086   39.1907  -20.9838 C   0  0  0  0  0  0  0  0  0  0  0  0
  -18.6316   37.7879  -21.3745 C   0  0  0  0  0  0  0  0  0  0  0  0
  -17.5506   37.1050  -21.8908 C   0  0  0  0  0  0  0  0  0  0  0  0
  -17.6445   35.7569  -22.2433 C   0  0  0  0  0  0  0  0  0  0  0  0
  -18.8192   35.0745  -22.0846 C   0  0  0  0  0  0  0  0  0  0  0  0
  -18.8787   33.7190  -22.4495 O   0  0  0  0  0  0  0  0  0  0  0  0
  -19.9074   35.7388  -21.5715 C   0  0  0  0  0  0  0  0  0  0  0  0
  -21.7104   34.6712  -21.3336 I   0  0  0  0  0  0  0  0  0  0  0  0
  -19.8048   37.0704  -21.2262 C   0  0  0  0  0  0  0  0  0  0  0  0
  -18.5363   39.9009  -23.3769 C   0  0  0  0  0  0  0  0  0  0  0  0
  -19.2688   39.6311  -24.3536 O   0  0  0  0  0  0  0  0  0  0  0  0
  -17.1712   39.9570  -23.5835 O   0  0  0  0  0  0  0  0  0  0  0  0
  2  1  1  6
  2  3  1  0
  3  4  1  0
  4  5  2  0
  5  6  1  0
  6  7  2  0
  7  8  1  0
  7  9  1  0
  9 10  1  0
  9 11  2  0
  2 12  1  0
 12 13  2  0
 12 14  1  0
 11  4  1  0
M  END
$$$$
