
     RDKit          3D

 18 18  0  0  0  0  0  0  0  0999 V2000
  -17.3387   14.6383  -29.8771 Cl  0  0  0  0  0  0  0  0  0  0  0  0
  -17.3313   14.6347  -29.8742 Cl  0  0  0  0  0  0  0  0  0  0  0  0
  -13.1543   12.7121  -28.3576 C   0  0  0  0  0  0  0  0  0  0  0  0
  -14.3899   12.4689  -27.7773 C   0  0  0  0  0  0  0  0  0  0  0  0
  -15.5040   13.1187  -28.2794 C   0  0  0  0  0  0  0  0  0  0  0  0
  -15.4292   13.9981  -29.3347 C   0  0  0  0  0  0  0  0  0  0  0  0
  -16.6085   14.6886  -29.8692 C   0  0  2  0  0  0  0  0  0  0  0  0
  -17.6313   15.0906  -28.8079 C   0  0  0  0  0  0  0  0  0  0  0  0
  -17.9601   14.0802  -29.8066 C   0  0  1  0  0  0  0  0  0  0  0  0
  -18.8820   14.2681  -30.8722 N   0  0  0  0  0  0  0  0  0  0  0  0
  -19.2924   15.6250  -31.0234 C   0  0  0  0  0  0  0  0  0  0  0  0
  -20.1108   15.7237  -32.3119 C   0  0  0  0  0  0  0  0  0  0  0  0
  -20.8825   17.0252  -32.3897 C   0  0  0  0  0  0  0  0  0  0  0  0
  -21.7938   17.1551  -31.2636 N   0  0  0  0  0  0  0  0  0  0  0  0
  -21.6018   16.0771  -30.3103 C   0  0  0  0  0  0  0  0  0  0  0  0
  -20.1621   16.0433  -29.8413 C   0  0  0  0  0  0  0  0  0  0  0  0
  -14.1968   14.2290  -29.8997 C   0  0  0  0  0  0  0  0  0  0  0  0
  -13.0475   13.5909  -29.4197 C   0  0  0  0  0  0  0  0  0  0  0  0
  3  4  2  0
  4  5  1  0
  5  6  2  0
  7  6  1  1
  7  8  1  0
  8  9  1  0
  9 10  1  6
 10 11  1  0
 11 12  1  0
 12 13  1  0
 13 14  1  0
 14 15  1  0
 15 16  1  0
  6 17  1  0
 17 18  2  0
 18  3  1  0
  9  7  1  0
 16 11  1  0
M  END
$$$$
