
     RDKit          3D

 24 27  0  0  0  0  0  0  0  0999 V2000
  -26.4511   22.2299  -31.0063 O   0  0  0  0  0  0  0  0  0  0  0  0
  -25.4851   22.0062  -30.2374 C   0  0  0  0  0  0  0  0  0  0  0  0
  -25.6157   22.3491  -28.9032 O   0  0  0  0  0  0  0  0  0  0  0  0
  -24.2664   21.3981  -30.7672 C   0  0  0  0  0  0  0  0  0  0  0  0
  -24.1427   21.0161  -32.0822 C   0  0  0  0  0  0  0  0  0  0  0  0
  -23.0211   20.4562  -32.5708 N   0  0  0  0  0  0  0  0  0  0  0  0
  -22.9606   20.0771  -33.9707 C   0  0  0  0  0  0  0  0  0  0  0  0
  -23.0104   18.6371  -34.3484 C   0  0  0  0  0  0  0  0  0  0  0  0
  -24.1662   19.5305  -34.6172 C   0  0  0  0  0  0  0  0  0  0  0  0
  -21.9410   20.2362  -31.7843 C   0  0  0  0  0  0  0  0  0  0  0  0
  -20.7867   19.6524  -32.3172 C   0  0  0  0  0  0  0  0  0  0  0  0
  -19.6933   19.4329  -31.5086 C   0  0  0  0  0  0  0  0  0  0  0  0
  -18.5016   18.8487  -31.9857 N   0  0  0  0  0  0  0  0  0  0  0  0
  -18.4894   17.7386  -32.9258 C   0  0  0  0  0  0  0  0  0  0  0  0
  -17.3861   18.0577  -33.9224 C   0  0  0  0  0  0  0  0  0  0  0  0
  -16.1356   17.9494  -33.2560 N   0  0  0  0  0  0  0  0  0  0  0  0
  -16.0801   18.4632  -31.9383 C   0  0  0  0  0  0  0  0  0  0  0  0
  -17.2201   19.3490  -31.5428 C   0  0  0  0  0  0  0  0  0  0  0  0
  -19.8035   19.8111  -30.1879 C   0  0  0  0  0  0  0  0  0  0  0  0
  -18.7287   19.5987  -29.3797 F   0  0  0  0  0  0  0  0  0  0  0  0
  -20.9333   20.3855  -29.6546 C   0  0  0  0  0  0  0  0  0  0  0  0
  -22.0429   20.6115  -30.4625 C   0  0  0  0  0  0  0  0  0  0  0  0
  -23.1807   21.1842  -29.9483 C   0  0  0  0  0  0  0  0  0  0  0  0
  -23.2228   21.5089  -28.7340 O   0  0  0  0  0  0  0  0  0  0  0  0
  1  2  2  0
  2  3  1  0
  2  4  1  0
  4  5  2  0
  5  6  1  0
  6  7  1  0
  7  8  1  0
  8  9  1  0
  6 10  1  0
 10 11  2  0
 11 12  1  0
 12 13  1  0
 13 14  1  0
 14 15  1  0
 15 16  1  0
 16 17  1  0
 17 18  1  0
 12 19  2  0
 19 20  1  0
 19 21  1  0
 21 22  2  0
 22 23  1  0
 23 24  2  0
 23  4  1  0
  9  7  1  0
 22 10  1  0
 18 13  1  0
M  END
$$$$
