
     RDKit          3D

 29 30  0  0  0  0  0  0  0  0999 V2000
  -20.9373   16.3426  -34.1372 C   0  0  0  0  0  0  0  0  0  0  0  0
  -20.2416   17.1022  -35.1580 N   0  0  0  0  0  0  0  0  0  0  0  0
  -20.7925   18.3707  -35.5492 C   0  0  0  0  0  0  0  0  0  0  0  0
  -19.0534   16.5692  -35.7231 C   0  0  0  0  0  0  0  0  0  0  0  0
  -18.6193   15.4565  -35.3323 O   0  0  0  0  0  0  0  0  0  0  0  0
  -18.2989   17.2226  -36.7280 N   0  0  0  0  0  0  0  0  0  0  0  0
  -17.0844   16.6921  -37.3113 C   0  0  1  0  0  0  0  0  0  0  0  0
  -17.2562   16.4163  -38.7582 C   0  0  0  0  0  0  0  0  0  0  0  0
  -16.7064   17.4214  -39.7121 C   0  0  0  0  0  0  0  0  0  0  0  0
  -15.5531   18.2084  -39.2159 C   0  0  2  0  0  0  0  0  0  0  0  0
  -14.5523   18.6629  -40.2132 C   0  0  0  0  0  0  0  0  0  0  0  0
  -13.8814   17.5685  -40.9588 C   0  0  0  0  0  0  0  0  0  0  0  0
  -12.9034   17.9565  -41.8923 N   0  0  0  0  0  0  0  0  0  0  0  0
  -13.2669   18.6412  -43.0543 C   0  0  0  0  0  0  0  0  0  0  0  0
  -12.3244   19.7244  -43.5338 C   0  0  0  0  0  0  0  0  0  0  0  0
  -10.9848   19.2298  -43.3936 N   0  0  0  0  0  0  0  0  0  0  0  0
  -10.1074   19.1582  -44.4826 C   0  0  0  0  0  0  0  0  0  0  0  0
   -9.5890   17.9258  -44.8821 C   0  0  0  0  0  0  0  0  0  0  0  0
   -8.7273   17.8751  -45.9421 C   0  0  0  0  0  0  0  0  0  0  0  0
   -8.3572   19.0047  -46.6269 C   0  0  0  0  0  0  0  0  0  0  0  0
   -8.8799   20.2176  -46.2188 C   0  0  0  0  0  0  0  0  0  0  0  0
   -8.4261   21.6682  -47.0677 Cl  0  0  0  0  0  0  0  0  0  0  0  0
   -9.7508   20.3202  -45.1570 C   0  0  0  0  0  0  0  0  0  0  0  0
  -10.4255   21.8440  -44.6229 Cl  0  0  0  0  0  0  0  0  0  0  0  0
  -10.6084   18.8131  -42.0583 C   0  0  0  0  0  0  0  0  0  0  0  0
  -11.5582   17.7703  -41.5504 C   0  0  0  0  0  0  0  0  0  0  0  0
  -14.9014   17.3775  -38.0982 C   0  0  0  0  0  0  0  0  0  0  0  0
  -15.8726   17.5023  -36.9420 C   0  0  0  0  0  0  0  0  0  0  0  0
  -14.0109   18.1003  -40.6005 Cl  0  0  0  0  0  0  0  0  0  0  0  0
  1  2  1  0
  2  3  1  0
  2  4  1  0
  4  5  2  0
  4  6  1  0
  7  6  1  6
  7  8  1  0
  8  9  1  0
  9 10  1  0
 10 11  1  6
 11 12  1  0
 12 13  1  0
 13 14  1  0
 14 15  1  0
 15 16  1  0
 16 17  1  0
 17 18  2  0
 18 19  1  0
 19 20  2  0
 20 21  1  0
 21 22  1  0
 21 23  2  0
 23 24  1  0
 16 25  1  0
 25 26  1  0
 10 27  1  0
 27 28  1  0
 28  7  1  0
 26 13  1  0
 23 17  1  0
M  END
$$$$
