
     RDKit          3D

 36 39  0  0  0  0  0  0  0  0999 V2000
  -14.1197   16.9446  -36.5193 C   0  0  0  0  0  0  0  0  0  0  0  0
  -15.4964   16.7940  -37.1823 C   0  0  1  0  0  0  0  0  0  0  0  0
  -16.5944   16.9492  -36.1504 C   0  0  0  0  0  0  0  0  0  0  0  0
  -16.7791   18.3338  -35.7976 N   0  0  0  0  0  0  0  0  0  0  0  0
  -16.9349   18.6900  -34.4413 C   0  0  0  0  0  0  0  0  0  0  0  0
  -16.7566   19.8850  -34.1032 O   0  0  0  0  0  0  0  0  0  0  0  0
  -17.2971   17.7269  -33.4012 C   0  0  0  0  0  0  0  0  0  0  0  0
  -18.5604   17.1600  -33.3169 C   0  0  0  0  0  0  0  0  0  0  0  0
  -18.8997   16.2476  -32.3289 C   0  0  0  0  0  0  0  0  0  0  0  0
  -20.0781   15.5451  -32.0297 C   0  0  0  0  0  0  0  0  0  0  0  0
  -21.2838   15.6848  -32.8127 C   0  0  0  0  0  0  0  0  0  0  0  0
  -21.2794   16.1934  -33.9571 O   0  0  0  0  0  0  0  0  0  0  0  0
  -22.5594   15.2364  -32.2978 C   0  0  0  0  0  0  0  0  0  0  0  0
  -22.6494   14.7413  -31.1518 O   0  0  0  0  0  0  0  0  0  0  0  0
  -23.7676   15.3329  -33.0580 N   0  0  0  0  0  0  0  0  0  0  0  0
  -25.0180   14.7815  -32.5394 C   0  0  0  0  0  0  0  0  0  0  0  0
  -23.7928   15.9695  -34.3447 C   0  0  0  0  0  0  0  0  0  0  0  0
  -19.8182   14.7805  -30.9281 C   0  0  0  0  0  0  0  0  0  0  0  0
  -18.5256   14.9910  -30.5451 N   0  0  0  0  0  0  0  0  0  0  0  0
  -17.8835   14.3642  -29.4261 C   0  0  0  0  0  0  0  0  0  0  0  0
  -17.9839   15.8680  -31.3862 C   0  0  0  0  0  0  0  0  0  0  0  0
  -16.7103   16.4315  -31.4610 C   0  0  0  0  0  0  0  0  0  0  0  0
  -16.3828   17.3370  -32.4460 C   0  0  0  0  0  0  0  0  0  0  0  0
  -14.7772   18.0331  -32.5221 Cl  0  0  0  0  0  0  0  0  0  0  0  0
  -16.8075   19.3521  -36.8193 C   0  0  2  0  0  0  0  0  0  0  0  0
  -18.1818   19.5150  -37.4245 C   0  0  0  0  0  0  0  0  0  0  0  0
  -15.7527   19.0893  -37.8686 C   0  0  0  0  0  0  0  0  0  0  0  0
  -15.5792   17.7412  -38.2127 N   0  0  0  0  0  0  0  0  0  0  0  0
  -15.6947   17.3381  -39.5453 C   0  0  0  0  0  0  0  0  0  0  0  0
  -14.3973   17.3993  -40.2674 C   0  0  0  0  0  0  0  0  0  0  0  0
  -13.7486   16.2759  -40.7211 C   0  0  0  0  0  0  0  0  0  0  0  0
  -12.5472   16.3937  -41.3802 C   0  0  0  0  0  0  0  0  0  0  0  0
  -11.9628   17.6200  -41.6044 C   0  0  0  0  0  0  0  0  0  0  0  0
  -10.7746   17.7593  -42.2543 F   0  0  0  0  0  0  0  0  0  0  0  0
  -12.6255   18.7285  -41.1441 C   0  0  0  0  0  0  0  0  0  0  0  0
  -13.8290   18.6342  -40.4819 C   0  0  0  0  0  0  0  0  0  0  0  0
  2  1  1  1
  2  3  1  0
  3  4  1  0
  4  5  1  0
  5  6  2  0
  5  7  1  0
  7  8  2  0
  8  9  1  0
  9 10  1  0
 10 11  1  0
 11 12  2  0
 11 13  1  0
 13 14  2  0
 13 15  1  0
 15 16  1  0
 15 17  1  0
 10 18  2  0
 18 19  1  0
 19 20  1  0
 19 21  1  0
 21 22  1  0
 22 23  2  0
 23 24  1  0
  4 25  1  0
 25 26  1  6
 25 27  1  0
 27 28  1  0
 28 29  1  0
 29 30  1  0
 30 31  2  0
 31 32  1  0
 32 33  2  0
 33 34  1  0
 33 35  1  0
 35 36  2  0
 28  2  1  0
 36 30  1  0
 23  7  1  0
 21  9  2  0
M  END
$$$$
