
     RDKit          3D

 27 26  0  0  0  0  0  0  0  0999 V2000
  -28.9154   13.8248  -20.3222 C   0  0  0  0  0  0  0  0  0  0  0  0
  -30.2635   14.3379  -20.1134 N   0  0  0  0  0  0  0  0  0  0  0  0
  -30.5409   15.7454  -20.2619 C   0  0  0  0  0  0  0  0  0  0  0  0
  -31.3139   13.4525  -19.7617 C   0  0  0  0  0  0  0  0  0  0  0  0
  -32.4670   13.9103  -19.5859 O   0  0  0  0  0  0  0  0  0  0  0  0
  -31.0565   12.0771  -19.6137 O   0  0  0  0  0  0  0  0  0  0  0  0
  -32.1374   11.2789  -19.2684 C   0  0  0  0  0  0  0  0  0  0  0  0
  -32.4400   11.0453  -17.9569 C   0  0  0  0  0  0  0  0  0  0  0  0
  -33.5112   10.2539  -17.5634 C   0  0  0  0  0  0  0  0  0  0  0  0
  -33.7293   10.0822  -16.2286 O   0  0  0  0  0  0  0  0  0  0  0  0
  -33.1920    9.0744  -15.4461 C   0  0  0  0  0  0  0  0  0  0  0  0
  -32.4352    8.2450  -16.0226 O   0  0  0  0  0  0  0  0  0  0  0  0
  -33.4952    9.0027  -14.0658 N   0  0  0  0  0  0  0  0  0  0  0  0
  -34.3607    9.9703  -13.4606 C   0  0  0  0  0  0  0  0  0  0  0  0
  -32.9203    7.9412  -13.2771 C   0  0  0  0  0  0  0  0  0  0  0  0
  -34.2812    9.6957  -18.5620 C   0  0  0  0  0  0  0  0  0  0  0  0
  -34.0207    9.8985  -19.9005 C   0  0  0  0  0  0  0  0  0  0  0  0
  -34.8989    9.2608  -20.9021 C   0  0  0  0  0  0  0  0  0  0  0  0
  -36.2501    9.3861  -20.6028 O   0  0  0  0  0  0  0  0  0  0  0  0
  -34.5425    7.8129  -21.1494 C   0  0  0  0  0  0  0  0  0  0  0  0
  -33.1366    7.7371  -21.4541 N   0  0  0  0  0  0  0  0  0  0  0  0
  -32.6789    6.3987  -21.7097 C   0  0  0  0  0  0  0  0  0  0  0  0
  -32.8763    5.4652  -20.5650 C   0  0  0  0  0  0  0  0  0  0  0  0
  -31.1749    6.4939  -21.9813 C   0  0  0  0  0  0  0  0  0  0  0  0
  -33.3875    5.8168  -22.9219 C   0  0  0  0  0  0  0  0  0  0  0  0
  -32.9400   10.6965  -20.2412 C   0  0  0  0  0  0  0  0  0  0  0  0
  -32.7034    9.0674  -19.6038 Cl  0  0  0  0  0  0  0  0  0  0  0  0
  1  2  1  0
  2  3  1  0
  2  4  1  0
  4  5  2  0
  4  6  1  0
  6  7  1  0
  7  8  2  0
  8  9  1  0
  9 10  1  0
 10 11  1  0
 11 12  2  0
 11 13  1  0
 13 14  1  0
 13 15  1  0
  9 16  2  0
 16 17  1  0
 17 18  1  0
 18 19  1  0
 18 20  1  0
 20 21  1  0
 21 22  1  0
 22 23  1  0
 22 24  1  0
 22 25  1  0
 17 26  2  0
 26  7  1  0
M  END
$$$$
