
     RDKit          3D

 11 12  0  0  0  0  0  0  0  0999 V2000
  -20.1345   39.3893  -21.6930 O   0  0  0  0  0  0  0  0  0  0  0  0
  -19.7805   38.1854  -21.6891 C   0  0  0  0  0  0  0  0  0  0  0  0
  -18.5232   37.9072  -21.3216 N   0  0  0  0  0  0  0  0  0  0  0  0
  -18.1003   36.6353  -21.3023 C   0  0  0  0  0  0  0  0  0  0  0  0
  -16.9268   36.3783  -20.9591 O   0  0  0  0  0  0  0  0  0  0  0  0
  -18.9937   35.6222  -21.6706 C   0  0  0  0  0  0  0  0  0  0  0  0
  -18.8331   34.2545  -21.7415 C   0  0  0  0  0  0  0  0  0  0  0  0
  -20.0094   33.7493  -22.1531 N   0  0  0  0  0  0  0  0  0  0  0  0
  -20.8755   34.7564  -22.3340 N   0  0  0  0  0  0  0  0  0  0  0  0
  -20.2846   35.9146  -22.0473 C   0  0  0  0  0  0  0  0  0  0  0  0
  -20.6573   37.2004  -22.0497 N   0  0  0  0  0  0  0  0  0  0  0  0
  1  2  2  0
  2  3  1  0
  3  4  1  0
  4  5  2  0
  4  6  1  0
  6  7  1  0
  7  8  2  0
  8  9  1  0
  9 10  1  0
 10 11  1  0
 11  2  1  0
 10  6  2  0
M  END
$$$$
