
     RDKit          3D

 40 44  0  0  0  0  0  0  0  0999 V2000
  -23.4557   39.7502  -24.9872 C   0  0  0  0  0  0  0  0  0  0  0  0
  -22.9055   40.8679  -25.7638 N   0  0  0  0  0  0  0  0  0  0  0  0
  -23.1037   42.0452  -24.9900 C   0  0  0  0  0  0  0  0  0  0  0  0
  -21.8783   42.9995  -25.0124 C   0  0  0  0  0  0  0  0  0  0  0  0
  -20.8011   42.3184  -24.3560 N   0  0  0  0  0  0  0  0  0  0  0  0
  -19.8660   42.8253  -23.4367 C   0  0  0  0  0  0  0  0  0  0  0  0
  -19.4063   44.1279  -23.5432 C   0  0  0  0  0  0  0  0  0  0  0  0
  -18.4913   44.6239  -22.6599 C   0  0  0  0  0  0  0  0  0  0  0  0
  -18.0224   43.7864  -21.6391 C   0  0  0  0  0  0  0  0  0  0  0  0
  -17.0770   44.3638  -20.7170 C   0  0  0  0  0  0  0  0  0  0  0  0
  -17.3999   45.5037  -19.9918 C   0  0  0  0  0  0  0  0  0  0  0  0
  -16.5584   46.0934  -19.0794 C   0  0  0  0  0  0  0  0  0  0  0  0
  -15.3254   45.5126  -18.8790 C   0  0  0  0  0  0  0  0  0  0  0  0
  -14.9416   44.3844  -19.5639 C   0  0  0  0  0  0  0  0  0  0  0  0
  -13.6014   43.7470  -19.3033 C   0  0  0  0  0  0  0  0  0  0  0  0
  -13.6220   43.0199  -18.0997 N   0  0  0  0  0  0  0  0  0  0  0  0
  -12.3773   42.4058  -17.7966 C   0  0  0  0  0  0  0  0  0  0  0  0
  -12.3468   42.1612  -16.2886 C   0  0  0  0  0  0  0  0  0  0  0  0
  -12.3007   43.3900  -15.6518 O   0  0  0  0  0  0  0  0  0  0  0  0
  -13.4005   44.1672  -15.9572 C   0  0  0  0  0  0  0  0  0  0  0  0
  -14.3203   43.5357  -16.9890 C   0  0  0  0  0  0  0  0  0  0  0  0
  -15.8228   43.8297  -20.4717 C   0  0  0  0  0  0  0  0  0  0  0  0
  -18.4646   42.5063  -21.5241 C   0  0  0  0  0  0  0  0  0  0  0  0
  -19.3846   41.9858  -22.3989 C   0  0  0  0  0  0  0  0  0  0  0  0
  -19.9245   40.6869  -22.3078 N   0  0  0  0  0  0  0  0  0  0  0  0
  -19.2949   39.4984  -21.9174 C   0  0  0  0  0  0  0  0  0  0  0  0
  -18.0714   39.4824  -21.7449 O   0  0  0  0  0  0  0  0  0  0  0  0
  -19.9823   38.2174  -21.6860 C   0  0  0  0  0  0  0  0  0  0  0  0
  -21.3725   38.1950  -21.8046 C   0  0  0  0  0  0  0  0  0  0  0  0
  -22.1185   37.1025  -21.6253 N   0  0  0  0  0  0  0  0  0  0  0  0
  -21.4707   35.9640  -21.3123 C   0  0  0  0  0  0  0  0  0  0  0  0
  -22.1704   34.9381  -21.1436 O   0  0  0  0  0  0  0  0  0  0  0  0
  -20.1042   35.8972  -21.1757 C   0  0  0  0  0  0  0  0  0  0  0  0
  -19.3628   37.0531  -21.3694 C   0  0  0  0  0  0  0  0  0  0  0  0
  -17.8782   37.0140  -21.2341 C   0  0  0  0  0  0  0  0  0  0  0  0
  -17.5089   37.8657  -20.1782 F   0  0  0  0  0  0  0  0  0  0  0  0
  -17.4147   35.7665  -20.8923 F   0  0  0  0  0  0  0  0  0  0  0  0
  -17.2967   37.5503  -22.3493 F   0  0  0  0  0  0  0  0  0  0  0  0
  -20.6866   40.9091  -24.7327 C   0  0  0  0  0  0  0  0  0  0  0  0
  -21.4843   40.6570  -26.0007 C   0  0  0  0  0  0  0  0  0  0  0  0
  1  2  1  0
  2  3  1  0
  3  4  1  0
  4  5  1  0
  5  6  1  0
  6  7  2  0
  7  8  1  0
  8  9  2  0
  9 10  1  0
 10 11  2  0
 11 12  1  0
 12 13  2  0
 13 14  1  0
 14 15  1  0
 15 16  1  0
 16 17  1  0
 17 18  1  0
 18 19  1  0
 19 20  1  0
 20 21  1  0
 14 22  2  0
  9 23  1  0
 23 24  2  0
 24 25  1  0
 25 26  1  0
 26 27  2  0
 26 28  1  0
 28 29  2  0
 29 30  1  0
 30 31  1  0
 31 32  2  0
 31 33  1  0
 33 34  2  0
 34 35  1  0
 35 36  1  0
 35 37  1  0
 35 38  1  0
  5 39  1  0
 39 40  1  0
 40  2  1  0
 24  6  1  0
 34 28  1  0
 22 10  1  0
 21 16  1  0
M  END
$$$$
