
     RDKit          3D

 25 26  0  0  0  0  0  0  0  0999 V2000
  -23.3034   12.4129  -33.3004 C   0  0  0  0  0  0  0  0  0  0  0  0
  -22.6117   12.2469  -31.9839 C   0  0  0  0  0  0  0  0  0  0  0  0
  -21.1100   12.4915  -32.1872 C   0  0  0  0  0  0  0  0  0  0  0  0
  -23.0454   13.2805  -31.1212 O   0  0  0  0  0  0  0  0  0  0  0  0
  -22.3432   14.4487  -30.9170 C   0  0  0  0  0  0  0  0  0  0  0  0
  -21.7773   14.5764  -29.8026 O   0  0  0  0  0  0  0  0  0  0  0  0
  -22.2036   15.5524  -31.8978 C   0  0  0  0  0  0  0  0  0  0  0  0
  -21.4535   15.0093  -33.1266 C   0  0  0  0  0  0  0  0  0  0  0  0
  -23.5238   16.0553  -32.4274 C   0  0  0  0  0  0  0  0  0  0  0  0
  -21.4631   16.6051  -31.3237 O   0  0  0  0  0  0  0  0  0  0  0  0
  -20.1790   16.4824  -30.8413 C   0  0  0  0  0  0  0  0  0  0  0  0
  -19.9266   15.9736  -29.6050 C   0  0  0  0  0  0  0  0  0  0  0  0
  -18.6309   15.8609  -29.1448 C   0  0  0  0  0  0  0  0  0  0  0  0
  -17.5989   16.2715  -29.9566 C   0  0  0  0  0  0  0  0  0  0  0  0
  -16.2291   16.1609  -29.4164 C   0  0  0  0  0  0  0  0  0  0  0  0
  -15.6748   17.2032  -29.0186 O   0  0  0  0  0  0  0  0  0  0  0  0
  -15.6205   14.8520  -29.3887 C   0  0  0  0  0  0  0  0  0  0  0  0
  -15.5641   14.0741  -30.5172 C   0  0  0  0  0  0  0  0  0  0  0  0
  -14.9395   12.8215  -30.4609 C   0  0  0  0  0  0  0  0  0  0  0  0
  -14.3814   12.3639  -29.2778 C   0  0  0  0  0  0  0  0  0  0  0  0
  -13.6022   10.7887  -29.2383 Cl  0  0  0  0  0  0  0  0  0  0  0  0
  -14.4452   13.1543  -28.1513 C   0  0  0  0  0  0  0  0  0  0  0  0
  -15.0500   14.3721  -28.2003 C   0  0  0  0  0  0  0  0  0  0  0  0
  -17.8589   16.7851  -31.2046 C   0  0  0  0  0  0  0  0  0  0  0  0
  -19.1471   16.8976  -31.6634 C   0  0  0  0  0  0  0  0  0  0  0  0
  1  2  1  0
  2  3  1  0
  2  4  1  0
  4  5  1  0
  5  6  2  0
  5  7  1  0
  7  8  1  0
  7  9  1  0
  7 10  1  0
 10 11  1  0
 11 12  2  0
 12 13  1  0
 13 14  2  0
 14 15  1  0
 15 16  2  0
 15 17  1  0
 17 18  2  0
 18 19  1  0
 19 20  2  0
 20 21  1  0
 20 22  1  0
 22 23  2  0
 14 24  1  0
 24 25  2  0
 25 11  1  0
 23 17  1  0
M  END
$$$$
