
     RDKit          3D

 26 26  0  0  0  0  0  0  0  0999 V2000
  -45.6018    5.1207  -38.9695 C   0  0  0  0  0  0  0  0  0  0  0  0
  -44.6167    5.9267  -38.2402 C   0  0  0  0  0  0  0  0  0  0  0  0
  -44.5001    7.1586  -38.4428 O   0  0  0  0  0  0  0  0  0  0  0  0
  -43.7956    5.3221  -37.3077 O   0  0  0  0  0  0  0  0  0  0  0  0
  -42.8623    6.0605  -36.5948 C   0  0  0  0  0  0  0  0  0  0  0  0
  -43.5036    7.0024  -35.6458 C   0  0  0  0  0  0  0  0  0  0  0  0
  -42.7656    7.7609  -34.9372 O   0  0  0  0  0  0  0  0  0  0  0  0
  -44.8915    7.1001  -35.4819 N   0  0  0  0  0  0  0  0  0  0  0  0
  -45.6146    7.9502  -34.6057 C   0  0  0  0  0  0  0  0  0  0  0  0
  -45.5037    7.7760  -33.1522 C   0  0  0  0  0  0  0  0  0  0  0  0
  -44.2298    7.9582  -32.4372 C   0  0  0  0  0  0  0  0  0  0  0  0
  -43.5929    9.1660  -32.4876 O   0  0  0  0  0  0  0  0  0  0  0  0
  -43.8780   10.4279  -32.0948 C   0  0  0  0  0  0  0  0  0  0  0  0
  -42.8830   11.3852  -32.3869 C   0  0  0  0  0  0  0  0  0  0  0  0
  -43.0697   12.6925  -32.0315 C   0  0  0  0  0  0  0  0  0  0  0  0
  -44.2229   13.0696  -31.3923 C   0  0  0  0  0  0  0  0  0  0  0  0
  -45.1940   12.1506  -31.1037 C   0  0  0  0  0  0  0  0  0  0  0  0
  -46.4659   12.5470  -30.3990 C   0  0  0  0  0  0  0  0  0  0  0  0
  -46.2939   12.3507  -29.0055 N   0  0  0  0  0  0  0  0  0  0  0  0
  -47.4932   12.6454  -28.2361 C   0  0  0  0  0  0  0  0  0  0  0  0
  -47.9604   14.0122  -28.6706 C   0  0  0  0  0  0  0  0  0  0  0  0
  -46.9069   15.0544  -28.6048 C   0  0  0  0  0  0  0  0  0  0  0  0
  -45.5335   14.5999  -28.3367 C   0  0  0  0  0  0  0  0  0  0  0  0
  -45.2572   13.1478  -28.4481 C   0  0  0  0  0  0  0  0  0  0  0  0
  -45.0180   10.8347  -31.4554 C   0  0  0  0  0  0  0  0  0  0  0  0
  -45.1157    9.7960  -32.9350 Cl  0  0  0  0  0  0  0  0  0  0  0  0
  1  2  1  0
  2  3  2  0
  2  4  1  0
  4  5  1  0
  5  6  1  0
  6  7  2  0
  6  8  1  0
  8  9  1  0
  9 10  1  0
 10 11  1  0
 11 12  1  0
 12 13  1  0
 13 14  2  0
 14 15  1  0
 15 16  2  0
 16 17  1  0
 17 18  1  0
 18 19  1  0
 19 20  1  0
 20 21  1  0
 21 22  1  0
 22 23  1  0
 23 24  1  0
 17 25  2  0
 25 13  1  0
 24 19  1  0
M  END
$$$$
