
     RDKit          3D

 33 37  0  0  0  0  0  0  0  0999 V2000
  -21.2472   38.6386  -20.1789 O   0  0  0  0  0  0  0  0  0  0  0  0
  -20.2652   39.3944  -20.2677 C   0  0  0  0  0  0  0  0  0  0  0  0
  -19.7563   39.7513  -21.6326 C   0  0  0  0  0  0  0  0  0  0  0  0
  -18.4430   40.5030  -21.5191 C   0  0  0  0  0  0  0  0  0  0  0  0
  -18.6732   41.6902  -20.6092 C   0  0  2  0  0  0  0  0  0  0  0  0
  -17.5197   42.5920  -20.6535 N   0  0  0  0  0  0  0  0  0  0  0  0
  -16.1606   42.3098  -20.3408 C   0  0  0  0  0  0  0  0  0  0  0  0
  -15.4468   43.5857  -20.5631 C   0  0  0  0  0  0  0  0  0  0  0  0
  -14.0761   43.9293  -20.4183 C   0  0  0  0  0  0  0  0  0  0  0  0
  -13.2502   42.9587  -20.0102 O   0  0  0  0  0  0  0  0  0  0  0  0
  -12.1349   42.8803  -19.2783 C   0  0  0  0  0  0  0  0  0  0  0  0
  -11.9031   43.8432  -18.1894 C   0  0  0  0  0  0  0  0  0  0  0  0
  -12.0823   43.4771  -16.8533 C   0  0  0  0  0  0  0  0  0  0  0  0
  -11.9092   44.3699  -15.8197 C   0  0  0  0  0  0  0  0  0  0  0  0
  -11.5475   45.6757  -16.0710 C   0  0  0  0  0  0  0  0  0  0  0  0
  -11.3547   46.6578  -14.9644 C   0  0  0  0  0  0  0  0  0  0  0  0
  -12.0300   46.1661  -13.8095 N   0  0  0  0  0  0  0  0  0  0  0  0
  -11.1496   45.5952  -12.8228 C   0  0  0  0  0  0  0  0  0  0  0  0
  -11.8482   45.1797  -11.5725 C   0  0  0  0  0  0  0  0  0  0  0  0
  -12.4950   46.2978  -11.0515 O   0  0  0  0  0  0  0  0  0  0  0  0
  -13.4658   46.7612  -11.8976 C   0  0  0  0  0  0  0  0  0  0  0  0
  -13.0438   47.0195  -13.2947 C   0  0  0  0  0  0  0  0  0  0  0  0
  -11.3709   46.0333  -17.4039 C   0  0  0  0  0  0  0  0  0  0  0  0
  -11.5462   45.1352  -18.4295 C   0  0  0  0  0  0  0  0  0  0  0  0
  -13.7156   45.2167  -20.7046 C   0  0  0  0  0  0  0  0  0  0  0  0
  -14.6123   46.1994  -21.1271 C   0  0  0  0  0  0  0  0  0  0  0  0
  -15.9182   45.8605  -21.2621 C   0  0  0  0  0  0  0  0  0  0  0  0
  -16.3116   44.5495  -20.9747 C   0  0  0  0  0  0  0  0  0  0  0  0
  -17.6423   43.9440  -21.0416 C   0  0  0  0  0  0  0  0  0  0  0  0
  -18.7114   44.5594  -21.3942 O   0  0  0  0  0  0  0  0  0  0  0  0
  -18.8812   41.1585  -19.2402 C   0  0  0  0  0  0  0  0  0  0  0  0
  -18.4692   41.7081  -18.1882 O   0  0  0  0  0  0  0  0  0  0  0  0
  -19.6008   39.9375  -19.1269 N   0  0  0  0  0  0  0  0  0  0  0  0
  1  2  2  0
  2  3  1  0
  3  4  1  0
  4  5  1  0
  5  6  1  1
  6  7  1  0
  7  8  1  0
  8  9  2  0
  9 10  1  0
 10 11  1  0
 11 12  1  0
 12 13  2  0
 13 14  1  0
 14 15  2  0
 15 16  1  0
 16 17  1  0
 17 18  1  0
 18 19  1  0
 19 20  1  0
 20 21  1  0
 21 22  1  0
 15 23  1  0
 23 24  2  0
  9 25  1  0
 25 26  2  0
 26 27  1  0
 27 28  2  0
 28 29  1  0
 29 30  2  0
  5 31  1  0
 31 32  2  0
 31 33  1  0
 33  2  1  0
 29  6  1  0
 28  8  1  0
 24 12  1  0
 22 17  1  0
M  END
$$$$
