
     RDKit          3D

 23 24  0  0  0  0  0  0  0  0999 V2000
  -23.4035   40.5719  -23.4274 C   0  0  0  0  0  0  0  0  0  0  0  0
  -21.9697   41.0204  -23.4996 C   0  0  0  0  0  0  0  0  0  0  0  0
  -20.9847   40.1231  -23.1005 N   0  0  0  0  0  0  0  0  0  0  0  0
  -20.2529   40.2492  -21.9307 C   0  0  1  0  0  0  0  0  0  0  0  0
  -20.7970   40.9794  -20.7746 C   0  0  0  0  0  0  0  0  0  0  0  0
  -19.7270   41.5778  -19.9548 N   0  0  0  0  0  0  0  0  0  0  0  0
  -18.7626   42.2793  -20.7405 C   0  0  0  0  0  0  0  0  0  0  0  0
  -18.1758   43.3887  -19.8616 C   0  0  0  0  0  0  0  0  0  0  0  0
  -17.2098   44.2390  -20.6473 C   0  0  0  0  0  0  0  0  0  0  0  0
  -17.8450   45.3043  -21.2399 O   0  0  0  0  0  0  0  0  0  0  0  0
  -18.1999   46.3311  -20.4038 C   0  0  0  0  0  0  0  0  0  0  0  0
  -19.0256   40.2534  -19.1133 S   0  0  0  0  0  6  0  0  0  0  0  0
  -17.6083   40.5791  -18.7918 O   0  0  0  0  0  0  0  0  0  0  0  0
  -19.7742   40.0444  -17.8142 O   0  0  0  0  0  0  0  0  0  0  0  0
  -19.1981   38.8676  -20.1435 C   0  0  0  0  0  0  0  0  0  0  0  0
  -18.7318   37.1467  -19.8651 S   0  0  0  0  0  0  0  0  0  0  0  0
  -19.3228   36.5950  -21.4793 C   0  0  0  0  0  0  0  0  0  0  0  0
  -19.2314   34.9345  -22.0357 S   0  0  0  0  0  6  0  0  0  0  0  0
  -18.1672   34.8143  -23.3669 N   0  0  0  0  0  0  0  0  0  0  0  0
  -20.6178   34.5691  -22.5287 O   0  0  0  0  0  0  0  0  0  0  0  0
  -18.8567   34.0643  -20.8983 O   0  0  0  0  0  0  0  0  0  0  0  0
  -19.7949   37.6983  -22.0559 C   0  0  0  0  0  0  0  0  0  0  0  0
  -19.7574   38.8897  -21.4193 C   0  0  0  0  0  0  0  0  0  0  0  0
  1  2  1  0
  2  3  1  0
  4  3  1  6
  4  5  1  0
  5  6  1  0
  6  7  1  0
  7  8  1  0
  8  9  1  0
  9 10  1  0
 10 11  1  0
  6 12  1  0
 12 13  2  0
 12 14  2  0
 12 15  1  0
 15 16  1  0
 16 17  1  0
 17 18  1  0
 18 19  1  0
 18 20  2  0
 18 21  2  0
 17 22  2  0
 22 23  1  0
 23  4  1  0
 23 15  2  0
M  END
$$$$
