
     RDKit          3D

 33 36  0  0  0  0  0  0  0  0999 V2000
  -18.5475   37.5715  -20.6052 C   0  0  0  0  0  0  0  0  0  0  0  0
  -18.9430   38.5854  -21.6636 C   0  0  0  0  0  0  0  0  0  0  0  0
  -19.0525   39.9207  -21.0524 N   0  0  0  0  0  0  0  0  0  0  0  0
  -18.0130   40.7341  -21.2532 C   0  0  0  0  0  0  0  0  0  0  0  0
  -18.1297   42.0045  -20.6723 C   0  0  0  0  0  0  0  0  0  0  0  0
  -17.1330   43.0343  -20.7675 C   0  0  0  0  0  0  0  0  0  0  0  0
  -17.1208   43.8136  -21.9074 C   0  0  0  0  0  0  0  0  0  0  0  0
  -16.1913   44.8197  -22.0560 C   0  0  0  0  0  0  0  0  0  0  0  0
  -15.2574   45.0728  -21.0813 C   0  0  0  0  0  0  0  0  0  0  0  0
  -15.2619   44.3044  -19.9474 C   0  0  0  0  0  0  0  0  0  0  0  0
  -14.2612   44.5685  -18.8917 C   0  0  0  0  0  0  0  0  0  0  0  0
  -13.2665   45.3870  -19.3969 F   0  0  0  0  0  0  0  0  0  0  0  0
  -13.6341   43.4044  -18.4708 F   0  0  0  0  0  0  0  0  0  0  0  0
  -14.8149   45.2625  -17.8223 F   0  0  0  0  0  0  0  0  0  0  0  0
  -16.1925   43.2983  -19.7996 C   0  0  0  0  0  0  0  0  0  0  0  0
  -19.2913   42.3015  -19.9534 C   0  0  0  0  0  0  0  0  0  0  0  0
  -19.8240   43.7920  -19.0725 S   0  0  0  0  0  0  0  0  0  0  0  0
  -21.3601   43.1530  -18.5467 C   0  0  0  0  0  0  0  0  0  0  0  0
  -22.3884   43.8535  -17.7401 C   0  0  0  0  0  0  0  0  0  0  0  0
  -22.2506   45.0985  -17.4400 N   0  0  0  0  0  0  0  0  0  0  0  0
  -23.5444   43.1877  -17.2865 N   0  0  0  0  0  0  0  0  0  0  0  0
  -24.5620   43.7547  -16.4409 C   0  0  0  0  0  0  0  0  0  0  0  0
  -25.1672   42.7926  -15.4590 C   0  0  0  0  0  0  0  0  0  0  0  0
  -25.9351   43.6539  -14.4423 C   0  0  0  0  0  0  0  0  0  0  0  0
  -27.3609   44.2701  -15.3529 S   0  0  0  0  0  6  0  0  0  0  0  0
  -27.4590   45.7716  -15.2392 O   0  0  0  0  0  0  0  0  0  0  0  0
  -28.6088   43.5827  -14.9503 O   0  0  0  0  0  0  0  0  0  0  0  0
  -26.9953   43.9333  -17.0787 C   0  0  0  0  0  0  0  0  0  0  0  0
  -25.5853   44.4232  -17.3146 C   0  0  0  0  0  0  0  0  0  0  0  0
  -21.3822   41.8923  -19.0490 C   0  0  0  0  0  0  0  0  0  0  0  0
  -20.3373   41.4639  -19.7589 C   0  0  0  0  0  0  0  0  0  0  0  0
  -20.1641   40.1968  -20.3675 C   0  0  0  0  0  0  0  0  0  0  0  0
  -21.0576   39.3121  -20.2705 O   0  0  0  0  0  0  0  0  0  0  0  0
  1  2  1  0
  2  3  1  0
  3  4  1  0
  4  5  2  0
  5  6  1  0
  6  7  2  0
  7  8  1  0
  8  9  2  0
  9 10  1  0
 10 11  1  0
 11 12  1  0
 11 13  1  0
 11 14  1  0
 10 15  2  0
  5 16  1  0
 16 17  1  0
 17 18  1  0
 18 19  1  0
 19 20  2  0
 19 21  1  0
 21 22  1  0
 22 23  1  0
 23 24  1  0
 24 25  1  0
 25 26  2  0
 25 27  2  0
 25 28  1  0
 28 29  1  0
 18 30  2  0
 30 31  1  0
 31 32  1  0
 32 33  2  0
 32  3  1  0
 15  6  1  0
 31 16  2  0
 29 22  1  0
M  END
$$$$
