
     RDKit          3D

 18 19  0  0  0  0  0  0  0  0999 V2000
  -31.9773   14.2120  -21.4051 C   0  0  0  0  0  0  0  0  0  0  0  0
  -30.4660   14.3464  -21.4059 C   0  0  0  0  0  0  0  0  0  0  0  0
  -29.9926   15.0436  -22.6586 C   0  0  0  0  0  0  0  0  0  0  0  0
  -28.5321   15.0501  -22.6183 N   0  0  0  0  0  0  0  0  0  0  0  0
  -27.7394   16.0696  -22.3640 N   0  0  0  0  0  0  0  0  0  0  0  0
  -26.4679   15.6949  -22.4159 N   0  0  0  0  0  0  0  0  0  0  0  0
  -26.4404   14.3846  -22.7148 C   0  0  0  0  0  0  0  0  0  0  0  0
  -25.2990   13.5261  -22.8809 N   0  0  0  0  0  0  0  0  0  0  0  0
  -24.0408   13.8514  -22.3080 C   0  0  0  0  0  0  0  0  0  0  0  0
  -23.8874   15.0417  -21.9227 O   0  0  0  0  0  0  0  0  0  0  0  0
  -22.9489   12.8530  -22.1619 C   0  0  0  0  0  0  0  0  0  0  0  0
  -21.7016   13.4687  -21.6658 C   0  0  0  0  0  0  0  0  0  0  0  0
  -21.4995   13.6754  -20.3074 C   0  0  0  0  0  0  0  0  0  0  0  0
  -20.3406   14.2486  -19.8322 C   0  0  0  0  0  0  0  0  0  0  0  0
  -19.3358   14.6398  -20.6859 C   0  0  0  0  0  0  0  0  0  0  0  0
  -19.5186   14.4423  -22.0402 C   0  0  0  0  0  0  0  0  0  0  0  0
  -20.6852   13.8660  -22.5092 C   0  0  0  0  0  0  0  0  0  0  0  0
  -27.7292   14.0224  -22.8320 N   0  0  0  0  0  0  0  0  0  0  0  0
  1  2  1  0
  2  3  1  0
  3  4  1  0
  4  5  1  0
  5  6  2  0
  6  7  1  0
  7  8  1  0
  8  9  1  0
  9 10  2  0
  9 11  1  0
 11 12  1  0
 12 13  2  0
 13 14  1  0
 14 15  2  0
 15 16  1  0
 16 17  2  0
  7 18  2  0
 18  4  1  0
 17 12  1  0
M  END
$$$$
