
     RDKit          3D

 31 35  0  0  0  0  0  0  0  0999 V2000
  -25.0936   16.6640  -18.8672 O   0  0  0  0  0  0  0  0  0  0  0  0
  -25.7591   16.5225  -19.9191 C   0  0  0  0  0  0  0  0  0  0  0  0
  -25.9292   17.6017  -20.7482 C   0  0  0  0  0  0  0  0  0  0  0  0
  -26.6546   17.4703  -21.9062 C   0  0  0  0  0  0  0  0  0  0  0  0
  -27.1963   16.2415  -22.2024 C   0  0  0  0  0  0  0  0  0  0  0  0
  -27.9479   16.0530  -23.3679 C   0  0  0  0  0  0  0  0  0  0  0  0
  -28.4875   14.8255  -23.6534 C   0  0  0  0  0  0  0  0  0  0  0  0
  -28.3201   13.7341  -22.8223 C   0  0  0  0  0  0  0  0  0  0  0  0
  -28.8861   12.5340  -23.1616 O   0  0  0  0  0  0  0  0  0  0  0  0
  -28.4823   11.3528  -22.4682 C   0  0  0  0  0  0  0  0  0  0  0  0
  -28.4106   10.1834  -23.4132 C   0  0  0  0  0  0  0  0  0  0  0  0
  -28.0347    8.8920  -22.7384 C   0  0  0  0  0  0  0  0  0  0  0  0
  -27.9968    7.7662  -23.7925 C   0  0  0  0  0  0  0  0  0  0  0  0
  -28.6738    8.1497  -24.9641 N   0  0  0  0  0  0  0  0  0  0  0  0
  -30.0611    7.9453  -25.0623 C   0  0  0  0  0  0  0  0  0  0  0  0
  -30.5069    7.9963  -26.5370 C   0  0  0  0  0  0  0  0  0  0  0  0
  -29.6708    7.0598  -27.2788 N   0  0  0  0  0  0  0  0  0  0  0  0
  -30.2784    6.0733  -28.1360 C   0  0  0  0  0  0  0  0  0  0  0  0
  -29.4829    5.3740  -29.0073 C   0  0  0  0  0  0  0  0  0  0  0  0
  -29.9253    4.4044  -29.8795 C   0  0  0  0  0  0  0  0  0  0  0  0
  -31.2826    4.1443  -29.8437 C   0  0  0  0  0  0  0  0  0  0  0  0
  -32.0874    4.8465  -28.9671 C   0  0  0  0  0  0  0  0  0  0  0  0
  -33.8460    4.7411  -28.6866 S   0  0  0  0  0  0  0  0  0  0  0  0
  -33.8789    6.0533  -27.3682 C   0  0  0  0  0  0  0  0  0  0  0  0
  -32.5707    6.4021  -27.3072 C   0  0  0  0  0  0  0  0  0  0  0  0
  -31.6616    5.8094  -28.0988 C   0  0  0  0  0  0  0  0  0  0  0  0
  -28.2427    7.1552  -27.1152 C   0  0  0  0  0  0  0  0  0  0  0  0
  -27.8974    8.2227  -26.1378 C   0  0  0  0  0  0  0  0  0  0  0  0
  -27.5721   13.9194  -21.6618 C   0  0  0  0  0  0  0  0  0  0  0  0
  -27.0280   15.1578  -21.3740 C   0  0  0  0  0  0  0  0  0  0  0  0
  -26.3106   15.3285  -20.2499 N   0  0  0  0  0  0  0  0  0  0  0  0
  1  2  2  0
  2  3  1  0
  3  4  2  0
  4  5  1  0
  5  6  2  0
  6  7  1  0
  7  8  2  0
  8  9  1  0
  9 10  1  0
 10 11  1  0
 11 12  1  0
 12 13  1  0
 13 14  1  0
 14 15  1  0
 15 16  1  0
 16 17  1  0
 17 18  1  0
 18 19  2  0
 19 20  1  0
 20 21  2  0
 21 22  1  0
 22 23  1  0
 23 24  1  0
 24 25  2  0
 25 26  1  0
 17 27  1  0
 27 28  1  0
  8 29  1  0
 29 30  2  0
 30 31  1  0
 31  2  1  0
 30  5  1  0
 28 14  1  0
 26 18  1  0
 26 22  2  0
M  END
$$$$
