
     RDKit          3D

 25 27  0  0  0  0  0  0  0  0999 V2000
  -18.7889   41.3056  -17.8759 N   0  0  0  0  0  0  0  0  0  0  0  0
  -18.7550   40.2146  -18.8409 C   0  0  0  0  0  0  0  0  0  0  0  0
  -18.6762   39.0416  -18.4275 O   0  0  0  0  0  0  0  0  0  0  0  0
  -18.8123   40.5179  -20.2082 N   0  0  0  0  0  0  0  0  0  0  0  0
  -18.9580   39.5337  -21.2839 C   0  0  0  0  0  0  0  0  0  0  0  0
  -18.8664   38.2138  -21.0840 C   0  0  0  0  0  0  0  0  0  0  0  0
  -19.0186   37.3848  -22.1591 C   0  0  0  0  0  0  0  0  0  0  0  0
  -18.9691   35.9240  -22.2341 C   0  0  0  0  0  0  0  0  0  0  0  0
  -18.6440   35.2675  -23.3817 C   0  0  0  0  0  0  0  0  0  0  0  0
  -18.6101   33.8812  -23.4047 C   0  0  0  0  0  0  0  0  0  0  0  0
  -18.8963   33.1094  -22.2948 C   0  0  0  0  0  0  0  0  0  0  0  0
  -19.2241   33.7850  -21.1387 C   0  0  0  0  0  0  0  0  0  0  0  0
  -19.5101   33.0456  -20.0322 F   0  0  0  0  0  0  0  0  0  0  0  0
  -19.2600   35.1560  -21.1075 C   0  0  0  0  0  0  0  0  0  0  0  0
  -19.3052   38.4754  -23.5316 S   0  0  0  0  0  0  0  0  0  0  0  0
  -19.1974   40.0116  -22.5373 C   0  0  0  0  0  0  0  0  0  0  0  0
  -19.3549   41.3101  -23.1197 C   0  0  0  0  0  0  0  0  0  0  0  0
  -19.1785   42.3491  -22.4764 O   0  0  0  0  0  0  0  0  0  0  0  0
  -19.7267   41.4307  -24.4837 N   0  0  0  0  0  0  0  0  0  0  0  0
  -20.0697   42.7285  -25.0319 C   0  0  1  0  0  0  0  0  0  0  0  0
  -20.1328   42.6423  -26.5331 C   0  0  0  0  0  0  0  0  0  0  0  0
  -20.3521   44.0063  -27.1161 C   0  0  0  0  0  0  0  0  0  0  0  0
  -21.0850   44.8458  -26.0658 C   0  0  0  0  0  0  0  0  0  0  0  0
  -22.0654   44.0337  -25.3695 N   0  0  0  0  0  0  0  0  0  0  0  0
  -21.4652   43.0568  -24.5119 C   0  0  0  0  0  0  0  0  0  0  0  0
  1  2  1  0
  2  3  2  0
  2  4  1  0
  4  5  1  0
  5  6  1  0
  6  7  2  0
  7  8  1  0
  8  9  2  0
  9 10  1  0
 10 11  2  0
 11 12  1  0
 12 13  1  0
 12 14  2  0
  7 15  1  0
 15 16  1  0
 16 17  1  0
 17 18  2  0
 17 19  1  0
 20 19  1  1
 20 21  1  0
 21 22  1  0
 22 23  1  0
 23 24  1  0
 24 25  1  0
 16  5  2  0
 25 20  1  0
 14  8  1  0
M  END
$$$$
