
     RDKit          3D

 32 36  0  0  0  0  0  0  0  0999 V2000
  -10.9200   47.2212  -18.9861 C   0  0  0  0  0  0  0  0  0  0  0  0
  -11.9368   46.4086  -19.5875 O   0  0  0  0  0  0  0  0  0  0  0  0
  -12.6205   45.5222  -18.7345 C   0  0  0  0  0  0  0  0  0  0  0  0
  -11.9400   44.8048  -17.7700 C   0  0  0  0  0  0  0  0  0  0  0  0
  -12.5557   43.9313  -16.9176 C   0  0  0  0  0  0  0  0  0  0  0  0
  -11.9242   43.1467  -15.9182 N   0  0  0  0  0  0  0  0  0  0  0  0
  -12.7005   42.6212  -14.8359 C   0  0  0  0  0  0  0  0  0  0  0  0
  -12.3581   41.1571  -14.6567 C   0  0  0  0  0  0  0  0  0  0  0  0
  -10.9657   40.9500  -14.4193 N   0  0  0  0  0  0  0  0  0  0  0  0
  -10.6863   40.4395  -13.0910 C   0  0  0  0  0  0  0  0  0  0  0  0
  -10.1134   42.0270  -14.7921 C   0  0  0  0  0  0  0  0  0  0  0  0
  -10.5083   42.8390  -15.9617 C   0  0  0  0  0  0  0  0  0  0  0  0
  -13.9387   43.7950  -17.0708 C   0  0  0  0  0  0  0  0  0  0  0  0
  -14.6360   44.5038  -18.0291 C   0  0  0  0  0  0  0  0  0  0  0  0
  -14.0023   45.3804  -18.8826 C   0  0  0  0  0  0  0  0  0  0  0  0
  -14.7160   46.1295  -19.8315 N   0  0  0  0  0  0  0  0  0  0  0  0
  -15.8857   45.7603  -20.5304 C   0  0  0  0  0  0  0  0  0  0  0  0
  -16.3653   46.5617  -21.5308 N   0  0  0  0  0  0  0  0  0  0  0  0
  -17.4384   46.2822  -22.2685 C   0  0  0  0  0  0  0  0  0  0  0  0
  -18.1163   45.1056  -22.0115 C   0  0  0  0  0  0  0  0  0  0  0  0
  -17.6598   44.2621  -21.0027 C   0  0  0  0  0  0  0  0  0  0  0  0
  -18.3836   43.0116  -20.7922 C   0  0  0  0  0  0  0  0  0  0  0  0
  -19.5420   42.5836  -21.3996 C   0  0  0  0  0  0  0  0  0  0  0  0
  -19.8755   41.3647  -20.9482 N   0  0  0  0  0  0  0  0  0  0  0  0
  -21.0706   40.6506  -21.4203 C   0  0  0  0  0  0  0  0  0  0  0  0
  -18.9830   40.9553  -20.0575 C   0  0  0  0  0  0  0  0  0  0  0  0
  -18.9049   39.7792  -19.3346 C   0  0  0  0  0  0  0  0  0  0  0  0
  -17.8726   39.6273  -18.4964 N   0  0  0  0  0  0  0  0  0  0  0  0
  -16.9295   40.5884  -18.3539 C   0  0  0  0  0  0  0  0  0  0  0  0
  -17.0062   41.7547  -19.0706 C   0  0  0  0  0  0  0  0  0  0  0  0
  -18.0402   41.9664  -19.9426 C   0  0  0  0  0  0  0  0  0  0  0  0
  -16.5731   44.6280  -20.3143 N   0  0  0  0  0  0  0  0  0  0  0  0
  1  2  1  0
  2  3  1  0
  3  4  2  0
  4  5  1  0
  5  6  1  0
  6  7  1  0
  7  8  1  0
  8  9  1  0
  9 10  1  0
  9 11  1  0
 11 12  1  0
  5 13  2  0
 13 14  1  0
 14 15  2  0
 15 16  1  0
 16 17  1  0
 17 18  2  0
 18 19  1  0
 19 20  2  0
 20 21  1  0
 21 22  1  0
 22 23  2  0
 23 24  1  0
 24 25  1  0
 24 26  1  0
 26 27  2  0
 27 28  1  0
 28 29  2  0
 29 30  1  0
 30 31  2  0
 21 32  2  0
 15  3  1  0
 32 17  1  0
 12  6  1  0
 31 22  1  0
 31 26  1  0
M  END
$$$$
