
     RDKit          3D

 24 28  0  0  0  0  0  0  0  0999 V2000
  -32.0946   17.1641  -22.7951 O   0  0  0  0  0  0  0  0  0  0  0  0
  -31.2664   16.6291  -23.5348 C   0  0  0  0  0  0  0  0  0  0  0  0
  -31.5024   16.8113  -24.9159 O   0  0  0  0  0  0  0  0  0  0  0  0
  -30.1163   15.8593  -23.1120 C   0  0  0  0  0  0  0  0  0  0  0  0
  -29.1882   15.4335  -24.0828 C   0  0  0  0  0  0  0  0  0  0  0  0
  -28.0755   14.7036  -23.7667 C   0  0  0  0  0  0  0  0  0  0  0  0
  -27.8311   14.3591  -22.4548 C   0  0  0  0  0  0  0  0  0  0  0  0
  -28.7420   14.7761  -21.4958 C   0  0  0  0  0  0  0  0  0  0  0  0
  -29.8821   15.5221  -21.8077 C   0  0  0  0  0  0  0  0  0  0  0  0
  -30.7302   15.8926  -20.7955 C   0  0  0  0  0  0  0  0  0  0  0  0
  -30.5014   15.5535  -19.4555 C   0  0  0  0  0  0  0  0  0  0  0  0
  -29.3925   14.8286  -19.1569 C   0  0  0  0  0  0  0  0  0  0  0  0
  -28.5339   14.4524  -20.1737 C   0  0  0  0  0  0  0  0  0  0  0  0
  -27.3895   13.7066  -19.8814 C   0  0  0  0  0  0  0  0  0  0  0  0
  -27.2119   13.4175  -18.6674 O   0  0  0  0  0  0  0  0  0  0  0  0
  -26.5128   13.3065  -20.8134 N   0  0  0  0  0  0  0  0  0  0  0  0
  -25.3688   12.6002  -20.7854 C   0  0  0  0  0  0  0  0  0  0  0  0
  -24.6614   12.0098  -19.7319 C   0  0  0  0  0  0  0  0  0  0  0  0
  -23.4893   11.3233  -19.9542 C   0  0  0  0  0  0  0  0  0  0  0  0
  -22.9915   11.2070  -21.2312 C   0  0  0  0  0  0  0  0  0  0  0  0
  -23.6739   11.7823  -22.2859 C   0  0  0  0  0  0  0  0  0  0  0  0
  -24.8451   12.4669  -22.0545 C   0  0  0  0  0  0  0  0  0  0  0  0
  -25.7226   13.1260  -22.8671 N   0  0  0  0  0  0  0  0  0  0  0  0
  -26.7098   13.6189  -22.1048 C   0  0  0  0  0  0  0  0  0  0  0  0
  1  2  2  0
  2  3  1  0
  2  4  1  0
  4  5  2  0
  5  6  1  0
  6  7  2  0
  7  8  1  0
  8  9  2  0
  9 10  1  0
 10 11  2  0
 11 12  1  0
 12 13  2  0
 13 14  1  0
 14 15  2  0
 14 16  1  0
 16 17  1  0
 17 18  2  0
 18 19  1  0
 19 20  2  0
 20 21  1  0
 21 22  2  0
 22 23  1  0
 23 24  2  0
  9  4  1  0
 24 16  1  0
 24  7  1  0
 13  8  1  0
 22 17  1  0
M  END
$$$$
