
     RDKit          3D

 23 26  0  0  0  0  0  0  0  0999 V2000
  -17.3811   35.9815  -22.3314 N   0  0  0  0  0  0  0  0  0  0  0  0
  -18.0680   36.8818  -22.0537 C   0  0  0  0  0  0  0  0  0  0  0  0
  -18.8958   37.9843  -21.7042 C   0  0  0  0  0  0  0  0  0  0  0  0
  -20.2482   37.7845  -21.5322 C   0  0  0  0  0  0  0  0  0  0  0  0
  -21.1299   38.8067  -21.1905 C   0  0  0  0  0  0  0  0  0  0  0  0
  -20.5918   40.0844  -21.0199 C   0  0  0  0  0  0  0  0  0  0  0  0
  -19.2532   40.3181  -21.1832 C   0  0  0  0  0  0  0  0  0  0  0  0
  -18.7251   41.6505  -21.0007 C   0  0  0  0  0  0  0  0  0  0  0  0
  -17.7641   42.0082  -20.0352 C   0  0  0  0  0  0  0  0  0  0  0  0
  -17.5579   43.3206  -20.1181 N   0  0  0  0  0  0  0  0  0  0  0  0
  -18.3385   43.8068  -21.0861 C   0  0  0  0  0  0  0  0  0  0  0  0
  -18.4451   45.0794  -21.5014 N   0  0  0  0  0  0  0  0  0  0  0  0
  -19.2887   45.3799  -22.4974 C   0  0  0  0  0  0  0  0  0  0  0  0
  -20.0081   44.4159  -23.0617 N   0  0  0  0  0  0  0  0  0  0  0  0
  -19.9374   43.1048  -22.6775 C   0  0  0  0  0  0  0  0  0  0  0  0
  -20.6902   42.1353  -23.3572 N   0  0  0  0  0  0  0  0  0  0  0  0
  -20.1062   41.2645  -24.3364 C   0  0  0  0  0  0  0  0  0  0  0  0
  -20.9877   41.3020  -25.6193 C   0  0  0  0  0  0  0  0  0  0  0  0
  -22.3143   41.1256  -25.2830 O   0  0  0  0  0  0  0  0  0  0  0  0
  -22.7462   42.1734  -24.5158 C   0  0  0  0  0  0  0  0  0  0  0  0
  -22.1055   42.0229  -23.1167 C   0  0  0  0  0  0  0  0  0  0  0  0
  -19.0702   42.8144  -21.6544 C   0  0  0  0  0  0  0  0  0  0  0  0
  -18.4362   39.2768  -21.5190 C   0  0  0  0  0  0  0  0  0  0  0  0
  1  2  3  0
  2  3  1  0
  3  4  2  0
  4  5  1  0
  5  6  2  0
  6  7  1  0
  7  8  1  0
  8  9  2  0
  9 10  1  0
 10 11  1  0
 11 12  2  0
 12 13  1  0
 13 14  2  0
 14 15  1  0
 15 16  1  0
 16 17  1  0
 17 18  1  0
 18 19  1  0
 19 20  1  0
 20 21  1  0
 15 22  2  0
  7 23  2  0
 23  3  1  0
 22  8  1  0
 22 11  1  0
 21 16  1  0
M  END
$$$$
