
     RDKit          3D

 28 30  0  0  0  0  0  0  0  0999 V2000
  -11.0168   41.4744  -14.5827 C   0  0  0  0  0  0  0  0  0  0  0  0
  -11.1730   42.2420  -15.8725 C   0  0  0  0  0  0  0  0  0  0  0  0
  -12.5478   42.4834  -16.0769 O   0  0  0  0  0  0  0  0  0  0  0  0
  -12.9653   43.2384  -17.1573 C   0  0  0  0  0  0  0  0  0  0  0  0
  -14.0293   44.0874  -17.0229 C   0  0  0  0  0  0  0  0  0  0  0  0
  -14.4812   44.8683  -18.0944 C   0  0  0  0  0  0  0  0  0  0  0  0
  -13.8615   44.8005  -19.3200 C   0  0  0  0  0  0  0  0  0  0  0  0
  -14.3077   45.5927  -20.4842 C   0  0  0  0  0  0  0  0  0  0  0  0
  -15.5870   45.1679  -21.0613 C   0  0  0  0  0  0  0  0  0  0  0  0
  -16.2285   44.0312  -20.5382 C   0  0  0  0  0  0  0  0  0  0  0  0
  -17.4348   43.5739  -21.0177 C   0  0  0  0  0  0  0  0  0  0  0  0
  -18.0939   42.3625  -20.4442 C   0  0  2  0  0  0  0  0  0  0  0  0
  -17.3243   41.2998  -20.7900 O   0  0  0  0  0  0  0  0  0  0  0  0
  -17.8755   40.0991  -21.0320 C   0  0  2  0  0  0  0  0  0  0  0  0
  -17.6718   39.7824  -22.5195 C   0  0  0  0  0  0  0  0  0  0  0  0
  -17.4355   38.4278  -22.7364 O   0  0  0  0  0  0  0  0  0  0  0  0
  -19.2535   39.8248  -20.5730 C   0  0  1  0  0  0  0  0  0  0  0  0
  -19.2624   38.9930  -19.4236 O   0  0  0  0  0  0  0  0  0  0  0  0
  -20.1543   40.9974  -20.4052 C   0  0  2  0  0  0  0  0  0  0  0  0
  -21.3669   40.8142  -21.0872 O   0  0  0  0  0  0  0  0  0  0  0  0
  -19.5326   42.3190  -20.8114 C   0  0  1  0  0  0  0  0  0  0  0  0
  -20.1785   43.2846  -19.9958 O   0  0  0  0  0  0  0  0  0  0  0  0
  -18.0014   44.2824  -22.0470 C   0  0  0  0  0  0  0  0  0  0  0  0
  -17.3776   45.4148  -22.5794 C   0  0  0  0  0  0  0  0  0  0  0  0
  -16.1662   45.8600  -22.0859 C   0  0  0  0  0  0  0  0  0  0  0  0
  -15.4431   47.2912  -22.8269 Cl  0  0  0  0  0  0  0  0  0  0  0  0
  -12.7843   43.9380  -19.4472 C   0  0  0  0  0  0  0  0  0  0  0  0
  -12.3421   43.1689  -18.3844 C   0  0  0  0  0  0  0  0  0  0  0  0
  1  2  1  0
  2  3  1  0
  3  4  1  0
  4  5  2  0
  5  6  1  0
  6  7  2  0
  7  8  1  0
  8  9  1  0
  9 10  2  0
 10 11  1  0
 12 11  1  6
 12 13  1  0
 13 14  1  0
 14 15  1  6
 15 16  1  0
 14 17  1  0
 17 18  1  1
 17 19  1  0
 19 20  1  6
 19 21  1  0
 21 22  1  1
 11 23  2  0
 23 24  1  0
 24 25  2  0
 25 26  1  0
  7 27  1  0
 27 28  2  0
 28  4  1  0
 25  9  1  0
 21 12  1  0
M  END
$$$$
