
     RDKit          3D

  4  3  0  0  0  0  0  0  0  0999 V2000
  -15.6938   14.6265  -30.1038 N   0  0  0  0  0  0  0  0  0  0  0  0
  -17.0104   15.0162  -29.7284 C   0  0  0  0  0  0  0  0  0  0  0  0
  -18.0227   15.3641  -30.6506 N   0  0  0  0  0  0  0  0  0  0  0  0
  -17.3964   15.0718  -28.1492 S   0  0  0  0  0  0  0  0  0  0  0  0
  1  2  1  0
  2  3  1  0
  2  4  2  0
M  END
$$$$
