
     RDKit          3D

 48 53  0  0  0  0  0  0  0  0999 V2000
  -31.0589    2.6123  -31.2850 C   0  0  0  0  0  0  0  0  0  0  0  0
  -29.7559    2.6941  -30.7307 O   0  0  0  0  0  0  0  0  0  0  0  0
  -29.3982    3.5449  -29.7144 C   0  0  0  0  0  0  0  0  0  0  0  0
  -29.3157    4.9147  -29.8980 C   0  0  0  0  0  0  0  0  0  0  0  0
  -28.9539    5.7379  -28.8580 C   0  0  0  0  0  0  0  0  0  0  0  0
  -28.6707    5.1997  -27.6235 C   0  0  0  0  0  0  0  0  0  0  0  0
  -28.7614    3.8104  -27.4632 C   0  0  0  0  0  0  0  0  0  0  0  0
  -29.1210    2.9709  -28.4889 C   0  0  0  0  0  0  0  0  0  0  0  0
  -29.2037    1.5915  -28.3045 O   0  0  0  0  0  0  0  0  0  0  0  0
  -29.1575    1.0862  -26.9738 C   0  0  0  0  0  0  0  0  0  0  0  0
  -28.2748    6.0195  -26.4700 C   0  0  0  0  0  0  0  0  0  0  0  0
  -28.3796    7.4331  -26.6446 N   0  0  0  0  0  0  0  0  0  0  0  0
  -29.7328    7.8862  -26.3893 C   0  0  0  0  0  0  0  0  0  0  0  0
  -30.0689    8.0119  -24.9314 C   0  0  0  0  0  0  0  0  0  0  0  0
  -29.6340    9.3246  -24.3785 C   0  0  0  0  0  0  0  0  0  0  0  0
  -28.5833    9.4315  -23.4987 C   0  0  0  0  0  0  0  0  0  0  0  0
  -28.2038   10.6522  -22.9837 C   0  0  0  0  0  0  0  0  0  0  0  0
  -28.8763   11.7967  -23.3450 C   0  0  0  0  0  0  0  0  0  0  0  0
  -28.4935   13.0705  -22.7966 N   0  0  0  0  0  0  0  0  0  0  0  0
  -29.2358   14.2080  -23.2222 C   0  0  0  0  0  0  0  0  0  0  0  0
  -30.1953   14.0493  -24.0242 O   0  0  0  0  0  0  0  0  0  0  0  0
  -28.9341   15.5559  -22.7704 C   0  0  0  0  0  0  0  0  0  0  0  0
  -28.7032   16.5578  -23.7004 C   0  0  0  0  0  0  0  0  0  0  0  0
  -28.4142   17.8429  -23.2842 C   0  0  0  0  0  0  0  0  0  0  0  0
  -28.1754   18.8811  -24.1695 O   0  0  0  0  0  0  0  0  0  0  0  0
  -27.1950   18.6512  -25.1857 C   0  0  0  0  0  0  0  0  0  0  0  0
  -28.3582   18.1180  -21.9349 C   0  0  0  0  0  0  0  0  0  0  0  0
  -28.0705   19.3993  -21.5023 O   0  0  0  0  0  0  0  0  0  0  0  0
  -27.6035   19.6858  -20.2068 C   0  0  0  0  0  0  0  0  0  0  0  0
  -28.5881   17.1210  -21.0063 C   0  0  0  0  0  0  0  0  0  0  0  0
  -28.8792   15.8253  -21.4198 C   0  0  0  0  0  0  0  0  0  0  0  0
  -29.1255   14.7638  -20.5139 N   0  0  0  0  0  0  0  0  0  0  0  0
  -30.0064   14.9226  -19.3900 C   0  0  0  0  0  0  0  0  0  0  0  0
  -30.0997   16.0655  -18.8921 O   0  0  0  0  0  0  0  0  0  0  0  0
  -30.7796   13.8383  -18.8161 C   0  0  0  0  0  0  0  0  0  0  0  0
  -30.8457   13.6975  -17.4382 C   0  0  0  0  0  0  0  0  0  0  0  0
  -31.5455   12.7143  -16.8500 N   0  0  0  0  0  0  0  0  0  0  0  0
  -32.2267   11.8021  -17.5387 C   0  0  0  0  0  0  0  0  0  0  0  0
  -32.9406   10.7975  -16.8898 C   0  0  0  0  0  0  0  0  0  0  0  0
  -33.6284    9.8796  -17.6552 C   0  0  0  0  0  0  0  0  0  0  0  0
  -33.6165    9.9462  -19.0407 C   0  0  0  0  0  0  0  0  0  0  0  0
  -32.8976   10.9556  -19.6322 C   0  0  0  0  0  0  0  0  0  0  0  0
  -32.1887   11.9042  -18.9131 C   0  0  0  0  0  0  0  0  0  0  0  0
  -31.4730   12.9121  -19.5634 C   0  0  0  0  0  0  0  0  0  0  0  0
  -29.9335   11.6884  -24.2315 C   0  0  0  0  0  0  0  0  0  0  0  0
  -30.3226   10.4754  -24.7528 C   0  0  0  0  0  0  0  0  0  0  0  0
  -27.9687    7.8017  -27.9906 C   0  0  0  0  0  0  0  0  0  0  0  0
  -28.8664    7.1839  -29.0571 C   0  0  0  0  0  0  0  0  0  0  0  0
  1  2  1  0
  2  3  1  0
  3  4  2  0
  4  5  1  0
  5  6  2  0
  6  7  1  0
  7  8  2  0
  8  9  1  0
  9 10  1  0
  6 11  1  0
 11 12  1  0
 12 13  1  0
 13 14  1  0
 14 15  1  0
 15 16  2  0
 16 17  1  0
 17 18  2  0
 18 19  1  0
 19 20  1  0
 20 21  2  0
 20 22  1  0
 22 23  2  0
 23 24  1  0
 24 25  1  0
 25 26  1  0
 24 27  2  0
 27 28  1  0
 28 29  1  0
 27 30  1  0
 30 31  2  0
 31 32  1  0
 32 33  1  0
 33 34  2  0
 33 35  1  0
 35 36  2  0
 36 37  1  0
 37 38  2  0
 38 39  1  0
 39 40  2  0
 40 41  1  0
 41 42  2  0
 42 43  1  0
 43 44  2  0
 18 45  1  0
 45 46  2  0
 12 47  1  0
 47 48  1  0
  8  3  1  0
 46 15  1  0
 48  5  1  0
 31 22  1  0
 44 35  1  0
 43 38  1  0
M  END
$$$$
