
     RDKit          3D

 32 36  0  0  0  0  0  0  0  0999 V2000
  -10.9010   45.4180  -20.6426 C   0  0  0  0  0  0  0  0  0  0  0  0
  -12.2283   44.8773  -20.0950 C   0  0  0  0  0  0  0  0  0  0  0  0
  -13.3403   45.2660  -21.0174 C   0  0  0  0  0  0  0  0  0  0  0  0
  -14.6945   44.7341  -20.6057 C   0  0  0  0  0  0  0  0  0  0  0  0
  -15.7486   45.7714  -20.6501 C   0  0  0  0  0  0  0  0  0  0  0  0
  -15.6857   46.8261  -21.3600 N   0  0  0  0  0  0  0  0  0  0  0  0
  -16.8498   47.6481  -21.2038 C   0  0  0  0  0  0  0  0  0  0  0  0
  -17.5909   47.8334  -22.5142 C   0  0  0  0  0  0  0  0  0  0  0  0
  -17.8858   49.2822  -22.6887 C   0  0  0  0  0  0  0  0  0  0  0  0
  -17.4733   49.9833  -21.4168 C   0  0  0  0  0  0  0  0  0  0  0  0
  -16.5264   49.0425  -20.7068 C   0  0  0  0  0  0  0  0  0  0  0  0
  -17.6662   46.8989  -20.2214 C   0  0  0  0  0  0  0  0  0  0  0  0
  -18.7897   47.2782  -19.7795 O   0  0  0  0  0  0  0  0  0  0  0  0
  -16.9332   45.7197  -19.9088 N   0  0  0  0  0  0  0  0  0  0  0  0
  -17.4467   44.7382  -18.9743 C   0  0  0  0  0  0  0  0  0  0  0  0
  -17.8220   43.4610  -19.5549 C   0  0  0  0  0  0  0  0  0  0  0  0
  -18.4825   43.4067  -20.7589 C   0  0  0  0  0  0  0  0  0  0  0  0
  -18.8558   42.2218  -21.3495 C   0  0  0  0  0  0  0  0  0  0  0  0
  -18.5766   40.9991  -20.7437 C   0  0  0  0  0  0  0  0  0  0  0  0
  -18.9926   39.7431  -21.3429 C   0  0  0  0  0  0  0  0  0  0  0  0
  -18.4612   39.3722  -22.5842 C   0  0  0  0  0  0  0  0  0  0  0  0
  -18.7406   38.2010  -23.2168 C   0  0  0  0  0  0  0  0  0  0  0  0
  -19.6104   37.3209  -22.5839 C   0  0  0  0  0  0  0  0  0  0  0  0
  -20.1496   37.6464  -21.3743 C   0  0  0  0  0  0  0  0  0  0  0  0
  -19.8462   38.8709  -20.7344 C   0  0  0  0  0  0  0  0  0  0  0  0
  -20.5502   39.0927  -19.4881 C   0  0  0  0  0  0  0  0  0  0  0  0
  -20.9388   38.1362  -18.5922 N   0  0  0  0  0  0  0  0  0  0  0  0
  -21.5245   38.6864  -17.5483 N   0  0  0  0  0  0  0  0  0  0  0  0
  -21.5201   39.9863  -17.7578 N   0  0  0  0  0  0  0  0  0  0  0  0
  -20.9266   40.2402  -18.9418 N   0  0  0  0  0  0  0  0  0  0  0  0
  -17.9103   41.0475  -19.5285 C   0  0  0  0  0  0  0  0  0  0  0  0
  -17.5474   42.2511  -18.9584 C   0  0  0  0  0  0  0  0  0  0  0  0
  1  2  1  0
  2  3  1  0
  3  4  1  0
  4  5  1  0
  5  6  2  0
  6  7  1  0
  7  8  1  0
  8  9  1  0
  9 10  1  0
 10 11  1  0
  7 12  1  0
 12 13  2  0
 12 14  1  0
 14 15  1  0
 15 16  1  0
 16 17  2  0
 17 18  1  0
 18 19  2  0
 19 20  1  0
 20 21  2  0
 21 22  1  0
 22 23  2  0
 23 24  1  0
 24 25  2  0
 25 26  1  0
 26 27  2  0
 27 28  1  0
 28 29  2  0
 29 30  1  0
 19 31  1  0
 31 32  2  0
 14  5  1  0
 32 16  1  0
 11  7  1  0
 25 20  1  0
 30 26  1  0
M  END
$$$$
