
     RDKit          3D

 20 21  0  0  0  0  0  0  0  0999 V2000
  -23.7582   39.8874  -29.2446 C   0  0  0  0  0  0  0  0  0  0  0  0
  -23.0639   38.5379  -29.1678 C   0  0  0  0  0  0  0  0  0  0  0  0
  -23.6970   37.7807  -27.9888 C   0  0  0  0  0  0  0  0  0  0  0  0
  -23.5048   36.3254  -28.2819 C   0  0  0  0  0  0  0  0  0  0  0  0
  -22.3356   35.7469  -27.9014 O   0  0  0  0  0  0  0  0  0  0  0  0
  -21.9302   34.5088  -27.5554 C   0  0  0  0  0  0  0  0  0  0  0  0
  -20.6973   34.2672  -26.9982 C   0  0  0  0  0  0  0  0  0  0  0  0
  -20.2439   32.9989  -26.6249 C   0  0  0  0  0  0  0  0  0  0  0  0
  -18.9052   32.7853  -26.0254 C   0  0  0  0  0  0  0  0  0  0  0  0
  -18.7522   33.3752  -24.6696 C   0  0  0  0  0  0  0  0  0  0  0  0
  -19.5395   32.6866  -23.5907 C   0  0  0  0  0  0  0  0  0  0  0  0
  -18.8556   33.1275  -22.3931 N   0  0  0  0  0  0  0  0  0  0  0  0
  -17.5113   33.4209  -22.7444 C   0  0  0  0  0  0  0  0  0  0  0  0
  -16.6022   33.6625  -21.9061 O   0  0  0  0  0  0  0  0  0  0  0  0
  -17.4180   33.3851  -24.1674 N   0  0  0  0  0  0  0  0  0  0  0  0
  -21.1038   31.9433  -26.8393 C   0  0  0  0  0  0  0  0  0  0  0  0
  -22.3489   32.1418  -27.3961 C   0  0  0  0  0  0  0  0  0  0  0  0
  -22.7664   33.3938  -27.7516 C   0  0  0  0  0  0  0  0  0  0  0  0
  -24.0227   33.6239  -28.3176 O   0  0  0  0  0  0  0  0  0  0  0  0
  -24.2999   33.3561  -29.6699 C   0  0  0  0  0  0  0  0  0  0  0  0
  1  2  1  0
  2  3  1  0
  3  4  1  0
  4  5  1  0
  5  6  1  0
  6  7  2  0
  7  8  1  0
  8  9  1  0
  9 10  1  0
 10 11  1  0
 11 12  1  0
 12 13  1  0
 13 14  2  0
 13 15  1  0
  8 16  2  0
 16 17  1  0
 17 18  2  0
 18 19  1  0
 19 20  1  0
 18  6  1  0
 15 10  1  0
M  END
$$$$
