
     RDKit          3D

 31 34  0  0  0  0  0  0  0  0999 V2000
  -21.4223   43.5035  -25.6456 C   0  0  0  0  0  0  0  0  0  0  0  0
  -20.8922   42.5258  -24.6947 C   0  0  0  0  0  0  0  0  0  0  0  0
  -21.1647   41.2384  -24.7373 C   0  0  0  0  0  0  0  0  0  0  0  0
  -22.1405   40.7640  -25.7382 C   0  0  0  0  0  0  0  0  0  0  0  0
  -20.4931   40.3488  -23.8026 C   0  0  0  0  0  0  0  0  0  0  0  0
  -19.6547   40.7902  -22.9844 O   0  0  0  0  0  0  0  0  0  0  0  0
  -20.7054   38.9961  -23.7309 O   0  0  0  0  0  0  0  0  0  0  0  0
  -20.0331   38.1911  -22.8481 C   0  0  1  0  0  0  0  0  0  0  0  0
  -20.8048   37.1980  -22.1049 C   0  0  0  0  0  0  0  0  0  0  0  0
  -21.6414   37.4874  -20.9106 C   0  0  0  0  0  0  0  0  0  0  0  0
  -20.6410   36.0104  -22.6676 C   0  0  0  0  0  0  0  0  0  0  0  0
  -19.7631   36.0955  -23.8200 C   0  0  2  0  0  0  0  0  0  0  0  0
  -18.6957   35.0197  -23.9379 C   0  0  0  0  0  0  0  0  0  0  0  0
  -17.9752   35.0875  -24.8661 O   0  0  0  0  0  0  0  0  0  0  0  0
  -18.6127   33.9583  -22.8999 C   0  0  1  0  0  0  0  0  0  0  0  0
  -18.5276   34.7859  -21.6428 C   0  0  0  0  0  0  0  0  0  0  0  0
  -18.2306   36.0872  -21.4808 C   0  0  0  0  0  0  0  0  0  0  0  0
  -18.2116   36.6045  -20.0674 C   0  0  0  0  0  0  0  0  0  0  0  0
  -16.9617   36.2421  -19.5096 O   0  0  0  0  0  0  0  0  0  0  0  0
  -17.9109   37.0571  -22.5578 C   0  0  1  0  0  0  0  0  0  0  0  0
  -16.6856   36.7815  -23.1606 O   0  0  0  0  0  0  0  0  0  0  0  0
  -19.0045   37.3019  -23.5708 C   0  0  2  0  0  0  0  0  0  0  0  0
  -18.5313   37.9938  -24.6518 O   0  0  0  0  0  0  0  0  0  0  0  0
  -19.9013   33.2050  -23.0153 C   0  0  1  0  0  0  0  0  0  0  0  0
  -20.8546   33.5085  -24.0289 C   0  0  1  0  0  0  0  0  0  0  0  0
  -20.6641   34.3328  -25.2016 C   0  0  0  0  0  0  0  0  0  0  0  0
  -20.5709   35.8438  -25.0257 C   0  0  1  0  0  0  0  0  0  0  0  0
  -21.9845   36.3646  -24.9491 C   0  0  0  0  0  0  0  0  0  0  0  0
  -20.1868   32.1525  -23.9786 C   0  0  0  0  0  0  0  0  0  0  0  0
  -19.1219   31.7432  -24.9112 C   0  0  0  0  0  0  0  0  0  0  0  0
  -21.0587   30.9505  -23.5616 C   0  0  0  0  0  0  0  0  0  0  0  0
  1  2  1  0
  2  3  2  0
  3  4  1  0
  3  5  1  0
  5  6  2  0
  5  7  1  0
  8  7  1  6
  8  9  1  0
  9 10  1  0
  9 11  2  0
 12 11  1  1
 12 13  1  0
 13 14  2  0
 13 15  1  0
 15 16  1  1
 16 17  2  0
 17 18  1  0
 18 19  1  0
 17 20  1  0
 20 21  1  6
 20 22  1  0
 22 23  1  6
 15 24  1  0
 24 25  1  0
 25 26  1  6
 26 27  1  0
 27 28  1  1
 25 29  1  0
 29 30  1  0
 29 31  1  0
 22  8  1  0
 24 29  1  6
 22 12  1  0
 27 12  1  0
M  END
$$$$
