
     RDKit          3D

 18 19  0  0  0  0  0  0  0  0999 V2000
  -16.3769   15.6434  -29.7040 O   0  0  0  0  0  0  0  0  0  0  0  0
  -17.1854   14.9575  -29.0367 C   0  0  0  0  0  0  0  0  0  0  0  0
  -16.8789   14.5049  -27.7356 N   0  0  0  0  0  0  0  0  0  0  0  0
  -15.5580   14.7618  -27.1899 C   0  0  0  0  0  0  0  0  0  0  0  0
  -14.6325   13.6312  -27.2922 C   0  0  0  0  0  0  0  0  0  0  0  0
  -13.3784   13.7758  -27.8243 C   0  0  0  0  0  0  0  0  0  0  0  0
  -12.5558   12.6365  -27.8665 C   0  0  0  0  0  0  0  0  0  0  0  0
  -12.9587   11.4219  -27.4066 C   0  0  0  0  0  0  0  0  0  0  0  0
  -11.9611    9.9817  -27.4405 Cl  0  0  0  0  0  0  0  0  0  0  0  0
  -14.2380   11.3047  -26.8713 C   0  0  0  0  0  0  0  0  0  0  0  0
  -15.0680   12.4016  -26.8146 C   0  0  0  0  0  0  0  0  0  0  0  0
  -18.4252   14.6639  -29.6650 N   0  0  0  0  0  0  0  0  0  0  0  0
  -18.7576   15.1360  -30.9911 C   0  0  0  0  0  0  0  0  0  0  0  0
  -19.8859   14.3227  -31.5087 C   0  0  0  0  0  0  0  0  0  0  0  0
  -20.6490   14.9336  -32.6379 C   0  0  0  0  0  0  0  0  0  0  0  0
  -20.8855   16.3996  -32.5494 C   0  0  0  0  0  0  0  0  0  0  0  0
  -19.6596   17.1784  -32.1190 C   0  0  0  0  0  0  0  0  0  0  0  0
  -19.1241   16.6055  -30.8293 C   0  0  0  0  0  0  0  0  0  0  0  0
  1  2  2  0
  2  3  1  0
  3  4  1  0
  4  5  1  0
  5  6  2  0
  6  7  1  0
  7  8  2  0
  8  9  1  0
  8 10  1  0
 10 11  2  0
  2 12  1  0
 12 13  1  0
 13 14  1  0
 14 15  1  0
 15 16  1  0
 16 17  1  0
 17 18  1  0
 11  5  1  0
 18 13  1  0
M  END
$$$$
