
     RDKit          3D

 26 29  0  0  0  0  0  0  0  0999 V2000
   -9.0206   16.9823  -40.3484 C   0  0  0  0  0  0  0  0  0  0  0  0
   -9.1689   16.1532  -41.5065 N   0  0  0  0  0  0  0  0  0  0  0  0
  -10.4167   16.5485  -42.1719 C   0  0  0  0  0  0  0  0  0  0  0  0
   -8.0956   16.4246  -42.4125 C   0  0  0  0  0  0  0  0  0  0  0  0
   -8.0726   17.8486  -42.8697 C   0  0  0  0  0  0  0  0  0  0  0  0
   -7.1091   18.0713  -43.9889 C   0  0  0  0  0  0  0  0  0  0  0  0
   -5.9199   17.1913  -43.8819 C   0  0  0  0  0  0  0  0  0  0  0  0
   -4.8543   17.0895  -44.6906 N   0  0  0  0  0  0  0  0  0  0  0  0
   -4.0051   16.1541  -44.2098 C   0  0  0  0  0  0  0  0  0  0  0  0
   -2.7766   15.6490  -44.6315 C   0  0  0  0  0  0  0  0  0  0  0  0
   -2.1497   14.6691  -43.8954 C   0  0  0  0  0  0  0  0  0  0  0  0
   -2.6701   14.1392  -42.7369 C   0  0  0  0  0  0  0  0  0  0  0  0
   -1.9892   13.1270  -42.0062 N   0  0  0  0  0  0  0  0  0  0  0  0
   -2.5982   11.9397  -41.5434 C   0  0  0  0  0  0  0  0  0  0  0  0
   -3.8520   11.8721  -41.6050 O   0  0  0  0  0  0  0  0  0  0  0  0
   -1.8431   10.7896  -40.9979 C   0  0  0  0  0  0  0  0  0  0  0  0
   -2.2805   10.0866  -39.9051 C   0  0  0  0  0  0  0  0  0  0  0  0
   -1.5251    9.0070  -39.4324 C   0  0  0  0  0  0  0  0  0  0  0  0
   -0.3458    8.6236  -40.0345 C   0  0  0  0  0  0  0  0  0  0  0  0
    0.3326    7.5673  -39.5208 F   0  0  0  0  0  0  0  0  0  0  0  0
    0.0905    9.3361  -41.1362 C   0  0  0  0  0  0  0  0  0  0  0  0
   -0.6618   10.3936  -41.5887 C   0  0  0  0  0  0  0  0  0  0  0  0
   -3.8972   14.6431  -42.3151 C   0  0  0  0  0  0  0  0  0  0  0  0
   -4.5280   15.6246  -43.0497 C   0  0  0  0  0  0  0  0  0  0  0  0
   -5.7323   16.2922  -42.8635 C   0  0  0  0  0  0  0  0  0  0  0  0
   -6.7318   16.1397  -41.7784 C   0  0  0  0  0  0  0  0  0  0  0  0
  1  2  1  0
  2  3  1  0
  2  4  1  0
  4  5  1  0
  5  6  1  0
  6  7  1  0
  7  8  1  0
  8  9  1  0
  9 10  2  0
 10 11  1  0
 11 12  2  0
 12 13  1  0
 13 14  1  0
 14 15  2  0
 14 16  1  0
 16 17  2  0
 17 18  1  0
 18 19  2  0
 19 20  1  0
 19 21  1  0
 21 22  2  0
 12 23  1  0
 23 24  2  0
 24 25  1  0
 25 26  1  0
 26  4  1  0
 25  7  2  0
 24  9  1  0
 22 16  1  0
M  END
$$$$
