
     RDKit          3D

 17 18  0  0  0  0  0  0  0  0999 V2000
  -13.1063   -3.7362  -36.3993 C   0  0  0  0  0  0  0  0  0  0  0  0
  -12.4629   -2.6115  -35.6288 C   0  0  0  0  0  0  0  0  0  0  0  0
  -13.3704   -1.9865  -34.7264 O   0  0  0  0  0  0  0  0  0  0  0  0
  -13.0093   -0.8265  -34.0732 C   0  0  0  0  0  0  0  0  0  0  0  0
  -11.8854   -0.1453  -34.5031 C   0  0  0  0  0  0  0  0  0  0  0  0
  -11.6192    1.1979  -34.3329 C   0  0  0  0  0  0  0  0  0  0  0  0
  -12.2506    2.1198  -33.5172 C   0  0  0  0  0  0  0  0  0  0  0  0
  -13.2469    1.8915  -32.5905 C   0  0  0  0  0  0  0  0  0  0  0  0
  -13.5709    2.8289  -31.8382 O   0  0  0  0  0  0  0  0  0  0  0  0
  -13.9572    0.7293  -32.3753 C   0  0  0  0  0  0  0  0  0  0  0  0
  -14.9435    0.5432  -31.4281 C   0  0  0  0  0  0  0  0  0  0  0  0
  -15.3811    1.5970  -30.4918 C   0  0  0  0  0  0  0  0  0  0  0  0
  -15.4353   -0.7061  -31.4809 N   0  0  0  0  0  0  0  0  0  0  0  0
  -16.4758   -1.2691  -30.6483 C   0  0  0  0  0  0  0  0  0  0  0  0
  -14.7770   -1.3501  -32.4620 C   0  0  0  0  0  0  0  0  0  0  0  0
  -14.9382   -2.7589  -32.9331 C   0  0  0  0  0  0  0  0  0  0  0  0
  -13.8528   -0.4918  -33.0389 C   0  0  0  0  0  0  0  0  0  0  0  0
  1  2  1  0
  2  3  1  0
  3  4  1  0
  4  5  2  0
  5  6  1  0
  6  7  2  0
  7  8  1  0
  8  9  2  0
  8 10  1  0
 10 11  2  0
 11 12  1  0
 11 13  1  0
 13 14  1  0
 13 15  1  0
 15 16  1  0
 15 17  2  0
 17  4  1  0
 17 10  1  0
M  END
$$$$
