
     RDKit          3D

 27 30  0  0  0  0  0  0  0  0999 V2000
  -22.6711   41.0321  -23.3843 C   0  0  0  0  0  0  0  0  0  0  0  0
  -22.1353   39.7500  -23.9291 C   0  0  0  0  0  0  0  0  0  0  0  0
  -20.8780   39.4603  -23.7601 C   0  0  0  0  0  0  0  0  0  0  0  0
  -19.8620   40.2324  -23.1099 C   0  0  0  0  0  0  0  0  0  0  0  0
  -20.1728   40.6108  -21.8916 O   0  0  0  0  0  0  0  0  0  0  0  0
  -18.6010   40.6644  -23.5116 N   0  0  0  0  0  0  0  0  0  0  0  0
  -17.9209   41.6844  -22.7223 C   0  0  0  0  0  0  0  0  0  0  0  0
  -18.0379   43.0138  -23.0569 C   0  0  0  0  0  0  0  0  0  0  0  0
  -17.3882   43.9951  -22.3038 C   0  0  0  0  0  0  0  0  0  0  0  0
  -16.6205   43.6214  -21.2114 C   0  0  0  0  0  0  0  0  0  0  0  0
  -15.8860   44.3070  -20.3041 N   0  0  0  0  0  0  0  0  0  0  0  0
  -15.3423   43.4544  -19.4529 N   0  0  0  0  0  0  0  0  0  0  0  0
  -15.6905   42.1900  -19.7589 C   0  0  0  0  0  0  0  0  0  0  0  0
  -16.5011   42.3019  -20.8748 C   0  0  0  0  0  0  0  0  0  0  0  0
  -17.1483   41.3647  -21.6304 C   0  0  0  0  0  0  0  0  0  0  0  0
  -20.4836   38.0581  -24.1967 C   0  0  0  0  0  0  0  0  0  0  0  0
  -20.5949   37.1754  -22.9979 C   0  0  0  0  0  0  0  0  0  0  0  0
  -19.9853   37.5306  -21.8052 C   0  0  0  0  0  0  0  0  0  0  0  0
  -20.0998   36.6931  -20.7211 C   0  0  0  0  0  0  0  0  0  0  0  0
  -20.8135   35.4940  -20.7883 C   0  0  0  0  0  0  0  0  0  0  0  0
  -20.9005   34.7006  -19.6978 F   0  0  0  0  0  0  0  0  0  0  0  0
  -21.4013   35.1772  -21.9826 C   0  0  0  0  0  0  0  0  0  0  0  0
  -21.2999   36.0029  -23.0854 C   0  0  0  0  0  0  0  0  0  0  0  0
  -21.1783   37.5656  -25.3114 N   0  0  0  0  0  0  0  0  0  0  0  0
  -22.5523   37.8638  -25.4705 C   0  0  0  0  0  0  0  0  0  0  0  0
  -23.2951   37.1455  -26.2144 O   0  0  0  0  0  0  0  0  0  0  0  0
  -23.0366   38.9816  -24.7691 N   0  0  0  0  0  0  0  0  0  0  0  0
  1  2  1  0
  2  3  2  0
  3  4  1  0
  4  5  2  0
  4  6  1  0
  6  7  1  0
  7  8  2  0
  8  9  1  0
  9 10  2  0
 10 11  1  0
 11 12  1  0
 12 13  2  0
 13 14  1  0
 14 15  2  0
  3 16  1  0
 16 17  1  0
 17 18  2  0
 18 19  1  0
 19 20  2  0
 20 21  1  0
 20 22  1  0
 22 23  2  0
 16 24  1  0
 24 25  1  0
 25 26  2  0
 25 27  1  0
 27  2  1  0
 15  7  1  0
 23 17  1  0
 14 10  1  0
M  END
$$$$
