
     RDKit          3D

 20 21  0  0  0  0  0  0  0  0999 V2000
  -17.6607   35.5833  -22.6785 N   0  0  0  0  0  0  0  0  0  0  0  0
  -18.8284   35.9752  -21.4978 S   0  0  0  0  0  6  0  0  0  0  0  0
  -20.0597   35.1255  -21.7390 O   0  0  0  0  0  0  0  0  0  0  0  0
  -18.2803   35.7153  -20.1163 O   0  0  0  0  0  0  0  0  0  0  0  0
  -19.2430   37.6717  -21.5967 C   0  0  0  0  0  0  0  0  0  0  0  0
  -18.9984   38.5605  -20.5559 C   0  0  0  0  0  0  0  0  0  0  0  0
  -19.3117   39.8799  -20.6111 C   0  0  0  0  0  0  0  0  0  0  0  0
  -19.8944   40.4034  -21.7177 C   0  0  0  0  0  0  0  0  0  0  0  0
  -20.1659   39.5615  -22.7978 C   0  0  0  0  0  0  0  0  0  0  0  0
  -19.8356   38.2069  -22.7205 C   0  0  0  0  0  0  0  0  0  0  0  0
  -20.1956   37.1851  -24.1034 Cl  0  0  0  0  0  0  0  0  0  0  0  0
  -20.2196   41.7754  -21.7762 N   0  0  0  0  0  0  0  0  0  0  0  0
  -19.6293   42.7948  -20.9806 C   0  0  0  0  0  0  0  0  0  0  0  0
  -18.2887   43.2553  -21.5709 C   0  0  0  0  0  0  0  0  0  0  0  0
  -18.6226   44.6916  -22.5579 Cl  0  0  0  0  0  0  0  0  0  0  0  0
  -17.5612   41.9839  -22.5632 Cl  0  0  0  0  0  0  0  0  0  0  0  0
  -19.4987   42.4726  -19.5826 N   0  0  0  0  0  0  0  0  0  0  0  0
  -18.9635   40.9061  -19.2526 S   0  0  0  0  0  6  0  0  0  0  0  0
  -19.7278   40.3353  -18.0654 O   0  0  0  0  0  0  0  0  0  0  0  0
  -17.5021   40.8365  -18.8608 O   0  0  0  0  0  0  0  0  0  0  0  0
  1  2  1  0
  2  3  2  0
  2  4  2  0
  2  5  1  0
  5  6  2  0
  6  7  1  0
  7  8  2  0
  8  9  1  0
  9 10  2  0
 10 11  1  0
  8 12  1  0
 12 13  1  0
 13 14  1  0
 14 15  1  0
 14 16  1  0
 13 17  1  0
 17 18  1  0
 18 19  2  0
 18 20  2  0
 10  5  1  0
 18  7  1  0
M  END
$$$$
