
     RDKit          3D

 21 22  0  0  0  0  0  0  0  0999 V2000
  -18.3705   33.9905  -25.9133 C   0  0  0  0  0  0  0  0  0  0  0  0
  -18.4945   32.6185  -26.5594 C   0  0  0  0  0  0  0  0  0  0  0  0
  -17.1028   31.9941  -26.5665 C   0  0  0  0  0  0  0  0  0  0  0  0
  -19.4201   31.8095  -25.8992 O   0  0  0  0  0  0  0  0  0  0  0  0
  -20.6125   31.3323  -26.3999 C   0  0  0  0  0  0  0  0  0  0  0  0
  -21.5922   32.2238  -26.8630 C   0  0  0  0  0  0  0  0  0  0  0  0
  -22.8096   31.8046  -27.3699 C   0  0  0  0  0  0  0  0  0  0  0  0
  -23.1047   30.4673  -27.4396 C   0  0  0  0  0  0  0  0  0  0  0  0
  -24.3859   29.9321  -27.8375 C   0  0  0  0  0  0  0  0  0  0  0  0
  -25.5456   30.2285  -27.0986 C   0  0  0  0  0  0  0  0  0  0  0  0
  -26.6257   29.7127  -27.6407 N   0  0  0  0  0  0  0  0  0  0  0  0
  -26.1789   29.0600  -28.7630 C   0  0  0  0  0  0  0  0  0  0  0  0
  -24.8103   29.1875  -28.8892 C   0  0  0  0  0  0  0  0  0  0  0  0
  -23.9505   28.5234  -29.9467 C   0  0  0  0  0  0  0  0  0  0  0  0
  -23.6676   27.1516  -29.5416 N   0  0  0  0  0  0  0  0  0  0  0  0
  -23.0355   26.4120  -30.6466 C   0  0  0  0  0  0  0  0  0  0  0  0
  -24.9732   26.4620  -29.3060 C   0  0  0  0  0  0  0  0  0  0  0  0
  -24.8485   25.1447  -28.6369 C   0  0  0  0  0  0  0  0  0  0  0  0
  -25.3239   23.9916  -29.3170 N   0  0  0  0  0  0  0  0  0  0  0  0
  -22.1240   29.5997  -26.9821 C   0  0  0  0  0  0  0  0  0  0  0  0
  -20.9078   29.9985  -26.4735 C   0  0  0  0  0  0  0  0  0  0  0  0
  1  2  1  0
  2  3  1  0
  2  4  1  0
  4  5  1  0
  5  6  2  0
  6  7  1  0
  7  8  2  0
  8  9  1  0
  9 10  2  0
 10 11  1  0
 11 12  1  0
 12 13  2  0
 13 14  1  0
 14 15  1  0
 15 16  1  0
 15 17  1  0
 17 18  1  0
 18 19  1  0
  8 20  1  0
 20 21  2  0
 21  5  1  0
 13  9  1  0
M  END
$$$$
