
     RDKit          3D

 15 16  0  0  0  0  0  0  0  0999 V2000
  -18.0764   39.2381  -20.7441 O   0  0  0  0  0  0  0  0  0  0  0  0
  -19.0003   39.5447  -21.5088 C   0  0  0  0  0  0  0  0  0  0  0  0
  -19.4448   40.8786  -21.5877 N   0  0  0  0  0  0  0  0  0  0  0  0
  -18.7416   42.0300  -21.1975 C   0  0  0  0  0  0  0  0  0  0  0  0
  -18.8496   43.1829  -21.9785 C   0  0  0  0  0  0  0  0  0  0  0  0
  -18.2186   44.3597  -21.7062 C   0  0  0  0  0  0  0  0  0  0  0  0
  -17.4151   44.4490  -20.5952 C   0  0  0  0  0  0  0  0  0  0  0  0
  -17.2875   43.3300  -19.8044 C   0  0  0  0  0  0  0  0  0  0  0  0
  -17.9405   42.1272  -20.0943 C   0  0  0  0  0  0  0  0  0  0  0  0
  -19.5627   38.4888  -22.2769 N   0  0  0  0  0  0  0  0  0  0  0  0
  -19.2329   37.0836  -21.9187 C   0  0  0  0  0  0  0  0  0  0  0  0
  -18.0065   36.7612  -21.2841 C   0  0  0  0  0  0  0  0  0  0  0  0
  -17.8817   35.4859  -21.0427 N   0  0  0  0  0  0  0  0  0  0  0  0
  -18.6480   34.6236  -21.2878 N   0  0  0  0  0  0  0  0  0  0  0  0
  -19.9974   35.6611  -22.0832 S   0  0  0  0  0  0  0  0  0  0  0  0
  1  2  2  0
  2  3  1  0
  3  4  1  0
  4  5  2  0
  5  6  1  0
  6  7  2  0
  7  8  1  0
  8  9  2  0
  2 10  1  0
 10 11  1  0
 11 12  2  0
 12 13  1  0
 13 14  2  0
 14 15  1  0
  9  4  1  0
 15 11  1  0
M  END
$$$$
