
     RDKit          3D

 42 45  0  0  0  0  0  0  0  0999 V2000
  -19.6815   22.3578  -43.7004 C   0  0  0  0  0  0  0  0  0  0  0  0
  -20.0009   23.1777  -42.4922 C   0  0  0  0  0  0  0  0  0  0  0  0
  -20.0707   24.6564  -42.9517 C   0  0  0  0  0  0  0  0  0  0  0  0
  -21.4607   22.8616  -42.1255 C   0  0  0  0  0  0  0  0  0  0  0  0
  -18.8565   22.9894  -41.1635 S   0  0  0  0  0  0  0  0  0  0  0  0
  -18.7486   21.3796  -40.4574 C   0  0  0  0  0  0  0  0  0  0  0  0
  -17.8299   20.3825  -40.6401 C   0  0  0  0  0  0  0  0  0  0  0  0
  -16.5606   20.2714  -41.3242 C   0  0  0  0  0  0  0  0  0  0  0  0
  -16.3739   20.1437  -42.7740 C   0  0  0  0  0  0  0  0  0  0  0  0
  -14.7892   19.9385  -42.9568 C   0  0  0  0  0  0  0  0  0  0  0  0
  -16.5537   21.3766  -43.6232 C   0  0  0  0  0  0  0  0  0  0  0  0
  -17.0232   19.0022  -43.4365 C   0  0  0  0  0  0  0  0  0  0  0  0
  -17.9100   19.2642  -44.3210 O   0  0  0  0  0  0  0  0  0  0  0  0
  -16.7476   17.6651  -43.1778 O   0  0  0  0  0  1  0  0  0  0  0  0
  -18.2934   19.3024  -39.8933 N   0  0  0  0  0  0  0  0  0  0  0  0
  -17.6420   18.0452  -39.6609 C   0  0  0  0  0  0  0  0  0  0  0  0
  -16.9725   17.9148  -38.3449 C   0  0  0  0  0  0  0  0  0  0  0  0
  -17.4576   16.9834  -37.4076 C   0  0  0  0  0  0  0  0  0  0  0  0
  -16.9053   16.8151  -36.1613 C   0  0  0  0  0  0  0  0  0  0  0  0
  -15.8291   17.6157  -35.8581 C   0  0  0  0  0  0  0  0  0  0  0  0
  -15.0855   17.4374  -34.2766 Cl  0  0  0  0  0  0  0  0  0  0  0  0
  -15.3272   18.5283  -36.7323 C   0  0  0  0  0  0  0  0  0  0  0  0
  -15.9092   18.6799  -37.9968 C   0  0  0  0  0  0  0  0  0  0  0  0
  -19.4412   19.6346  -39.2876 C   0  0  0  0  0  0  0  0  0  0  0  0
  -20.2950   18.9280  -38.4309 C   0  0  0  0  0  0  0  0  0  0  0  0
  -21.4300   19.5056  -37.9155 C   0  0  0  0  0  0  0  0  0  0  0  0
  -21.7605   20.7824  -38.2210 C   0  0  0  0  0  0  0  0  0  0  0  0
  -22.8773   21.4470  -37.7504 O   0  0  0  0  0  0  0  0  0  0  0  0
  -23.8410   20.9336  -36.8949 C   0  0  0  0  0  0  0  0  0  0  0  0
  -24.8673   21.9759  -36.6343 C   0  0  0  0  0  0  0  0  0  0  0  0
  -24.7650   23.1855  -37.2709 C   0  0  0  0  0  0  0  0  0  0  0  0
  -25.7119   24.1563  -37.0314 C   0  0  0  0  0  0  0  0  0  0  0  0
  -26.7462   23.8813  -36.1506 C   0  0  0  0  0  0  0  0  0  0  0  0
  -27.7098   24.8571  -35.8996 C   0  0  0  0  0  0  0  0  0  0  0  0
  -28.7146   24.5483  -35.0225 C   0  0  0  0  0  0  0  0  0  0  0  0
  -28.7576   23.3079  -34.4154 C   0  0  0  0  0  0  0  0  0  0  0  0
  -27.8060   22.3435  -34.6627 C   0  0  0  0  0  0  0  0  0  0  0  0
  -26.7882   22.6605  -35.5532 C   0  0  0  0  0  0  0  0  0  0  0  0
  -25.8739   21.6986  -35.7724 N   0  0  0  0  0  0  0  0  0  0  0  0
  -20.9157   21.4816  -39.0707 C   0  0  0  0  0  0  0  0  0  0  0  0
  -19.7765   20.9179  -39.5968 C   0  0  0  0  0  0  0  0  0  0  0  0
  -20.3497   21.0384  -39.4417 Na  0  0  0  0  0 15  0  0  0  0  0  0
  1  2  1  0
  2  3  1  0
  2  4  1  0
  2  5  1  0
  5  6  1  0
  6  7  2  0
  7  8  1  0
  8  9  1  0
  9 10  1  0
  9 11  1  0
  9 12  1  0
 12 13  2  0
 12 14  1  0
  7 15  1  0
 15 16  1  0
 16 17  1  0
 17 18  2  0
 18 19  1  0
 19 20  2  0
 20 21  1  0
 20 22  1  0
 22 23  2  0
 15 24  1  0
 24 25  2  0
 25 26  1  0
 26 27  2  0
 27 28  1  0
 28 29  1  0
 29 30  1  0
 30 31  2  0
 31 32  1  0
 32 33  2  0
 33 34  1  0
 34 35  2  0
 35 36  1  0
 36 37  2  0
 37 38  1  0
 38 39  2  0
 27 40  1  0
 40 41  2  0
 41  6  1  0
 23 17  1  0
 41 24  1  0
 39 30  1  0
 38 33  1  0
M  CHG  2  14  -1  42   1
M  END
$$$$
