
     RDKit          3D

 27 29  0  0  0  0  0  0  0  0999 V2000
  -13.4383   44.3615  -18.2706 N   0  0  0  0  0  0  0  0  0  0  0  0
  -14.6395   44.6192  -18.9654 C   0  0  0  0  0  0  0  0  0  0  0  0
  -14.9811   45.8267  -19.4278 N   0  0  0  0  0  0  0  0  0  0  0  0
  -16.1063   46.0985  -20.0857 C   0  0  0  0  0  0  0  0  0  0  0  0
  -16.9613   45.0657  -20.2963 N   0  0  0  0  0  0  0  0  0  0  0  0
  -16.6854   43.8256  -19.8609 C   0  0  0  0  0  0  0  0  0  0  0  0
  -15.5195   43.5599  -19.1829 C   0  0  0  0  0  0  0  0  0  0  0  0
  -15.5433   42.2595  -18.8918 N   0  0  0  0  0  0  0  0  0  0  0  0
  -16.6870   41.6938  -19.3639 C   0  0  0  0  0  0  0  0  0  0  0  0
  -17.3862   42.6601  -19.9589 N   0  0  0  0  0  0  0  0  0  0  0  0
  -18.6734   42.5515  -20.6136 C   0  0  2  0  0  0  0  0  0  0  0  0
  -19.4239   41.5373  -20.0926 O   0  0  0  0  0  0  0  0  0  0  0  0
  -20.1944   40.9761  -21.0827 C   0  0  2  0  0  0  0  0  0  0  0  0
  -20.0567   39.4815  -20.9980 C   0  0  0  0  0  0  0  0  0  0  0  0
  -19.1462   38.9711  -21.9133 O   0  0  0  0  0  0  0  0  0  0  0  0
  -18.1674   37.7807  -21.2836 P   0  0  0  0  0  5  0  0  0  0  0  0
  -17.2123   37.2995  -22.3797 O   0  0  0  0  0  0  0  0  0  0  0  0
  -17.2375   38.4658  -20.0403 O   0  0  0  0  0  0  0  0  0  0  0  0
  -19.0116   36.4331  -20.7629 O   0  0  0  0  0  0  0  0  0  0  0  0
  -19.7781   35.6049  -21.9926 P   0  0  0  0  0  5  0  0  0  0  0  0
  -20.3291   34.2715  -21.5481 O   0  0  0  0  0  0  0  0  0  0  0  0
  -21.1112   36.5555  -22.4910 O   0  0  0  0  0  0  0  0  0  0  0  0
  -18.7976   35.4142  -23.3586 O   0  0  0  0  0  0  0  0  0  0  0  0
  -19.7488   41.5268  -22.4041 C   0  0  1  0  0  0  0  0  0  0  0  0
  -20.5944   42.5658  -22.8211 O   0  0  0  0  0  0  0  0  0  0  0  0
  -18.4011   42.1244  -22.0574 C   0  0  1  0  0  0  0  0  0  0  0  0
  -18.0697   43.1930  -22.8617 O   0  0  0  0  0  0  0  0  0  0  0  0
  1  2  1  0
  2  3  2  0
  3  4  1  0
  4  5  2  0
  5  6  1  0
  6  7  2  0
  7  8  1  0
  8  9  2  0
  9 10  1  0
 11 10  1  1
 11 12  1  0
 12 13  1  0
 13 14  1  6
 14 15  1  0
 15 16  1  0
 16 17  2  0
 16 18  1  0
 16 19  1  0
 19 20  1  0
 20 21  2  0
 20 22  1  0
 20 23  1  0
 13 24  1  0
 24 25  1  1
 24 26  1  0
 26 27  1  6
  7  2  1  0
 26 11  1  0
 10  6  1  0
M  END
$$$$
