
     RDKit          3D

 18 19  0  0  0  0  0  0  0  0999 V2000
  -32.0131    9.8549  -17.4237 O   0  0  0  0  0  0  0  0  0  0  0  0
  -32.2532   10.1484  -18.6085 C   0  0  0  0  0  0  0  0  0  0  0  0
  -33.1793    9.4163  -19.3198 O   0  0  0  0  0  0  0  0  0  0  0  0
  -31.5744   11.2473  -19.2508 C   0  0  0  0  0  0  0  0  0  0  0  0
  -30.7186   12.0255  -18.5050 C   0  0  0  0  0  0  0  0  0  0  0  0
  -30.0672   13.0868  -19.1388 C   0  0  0  0  0  0  0  0  0  0  0  0
  -30.2686   13.3520  -20.4628 C   0  0  0  0  0  0  0  0  0  0  0  0
  -29.6118   14.4436  -21.1568 C   0  0  0  0  0  0  0  0  0  0  0  0
  -28.9693   15.4719  -20.5095 C   0  0  0  0  0  0  0  0  0  0  0  0
  -28.3408   16.5170  -21.1894 C   0  0  0  0  0  0  0  0  0  0  0  0
  -28.3785   16.4964  -22.5645 C   0  0  0  0  0  0  0  0  0  0  0  0
  -27.7344   17.5689  -23.3126 C   0  0  0  0  0  0  0  0  0  0  0  0
  -27.9012   17.7457  -24.5360 O   0  0  0  0  0  0  0  0  0  0  0  0
  -26.8905   18.4463  -22.6475 O   0  0  0  0  0  0  0  0  0  0  0  0
  -29.0186   15.4723  -23.2181 C   0  0  0  0  0  0  0  0  0  0  0  0
  -29.5984   14.5059  -22.5150 N   0  0  0  0  0  0  0  0  0  0  0  0
  -31.1129   12.5626  -21.1430 N   0  0  0  0  0  0  0  0  0  0  0  0
  -31.7638   11.5303  -20.5820 C   0  0  0  0  0  0  0  0  0  0  0  0
  1  2  2  0
  2  3  1  0
  2  4  1  0
  4  5  2  0
  5  6  1  0
  6  7  2  0
  7  8  1  0
  8  9  2  0
  9 10  1  0
 10 11  2  0
 11 12  1  0
 12 13  2  0
 12 14  1  0
 11 15  1  0
 15 16  2  0
  7 17  1  0
 17 18  2  0
 18  4  1  0
 16  8  1  0
M  END
$$$$
