
     RDKit          3D

 24 26  0  0  0  0  0  0  0  0999 V2000
  -20.7288   30.2116  -20.3763 C   0  0  0  0  0  0  0  0  0  0  0  0
  -20.6964   30.8507  -21.6141 O   0  0  0  0  0  0  0  0  0  0  0  0
  -20.5465   32.2110  -21.7186 C   0  0  0  0  0  0  0  0  0  0  0  0
  -21.0212   33.0862  -20.7659 C   0  0  0  0  0  0  0  0  0  0  0  0
  -20.8566   34.4726  -20.8900 C   0  0  0  0  0  0  0  0  0  0  0  0
  -20.2031   34.9815  -21.9931 C   0  0  0  0  0  0  0  0  0  0  0  0
  -19.9631   36.4149  -22.1261 N   0  0  0  0  0  0  0  0  0  0  0  0
  -20.7001   37.2837  -22.9430 C   0  0  0  0  0  0  0  0  0  0  0  0
  -21.7099   36.8996  -23.6399 O   0  0  0  0  0  0  0  0  0  0  0  0
  -20.2604   38.6609  -22.9587 C   0  0  0  0  0  0  0  0  0  0  0  0
  -20.4853   39.5928  -23.8630 C   0  0  0  0  0  0  0  0  0  0  0  0
  -19.7635   40.8537  -23.8863 C   0  0  0  0  0  0  0  0  0  0  0  0
  -19.5366   41.5284  -22.7002 C   0  0  0  0  0  0  0  0  0  0  0  0
  -18.8505   42.7274  -22.6367 C   0  0  0  0  0  0  0  0  0  0  0  0
  -18.3568   43.3069  -23.7725 C   0  0  0  0  0  0  0  0  0  0  0  0
  -17.6645   44.4966  -23.8094 O   0  0  0  0  0  0  0  0  0  0  0  0
  -18.5705   42.6476  -24.9782 C   0  0  0  0  0  0  0  0  0  0  0  0
  -17.9186   43.3638  -26.6412 Br  0  0  0  0  0  0  0  0  0  0  0  0
  -19.2564   41.4545  -25.0189 C   0  0  0  0  0  0  0  0  0  0  0  0
  -19.3183   38.7925  -21.4363 S   0  0  0  0  0  0  0  0  0  0  0  0
  -18.8834   37.0155  -21.4260 C   0  0  0  0  0  0  0  0  0  0  0  0
  -17.5487   36.3679  -20.7697 S   0  0  0  0  0  0  0  0  0  0  0  0
  -19.7406   34.0861  -22.9277 C   0  0  0  0  0  0  0  0  0  0  0  0
  -19.8993   32.7350  -22.8099 C   0  0  0  0  0  0  0  0  0  0  0  0
  1  2  1  0
  2  3  1  0
  3  4  2  0
  4  5  1  0
  5  6  2  0
  6  7  1  0
  7  8  1  0
  8  9  2  0
  8 10  1  0
 10 11  2  0
 11 12  1  0
 12 13  2  0
 13 14  1  0
 14 15  2  0
 15 16  1  0
 15 17  1  0
 17 18  1  0
 17 19  2  0
 10 20  1  0
 20 21  1  0
 21 22  2  0
  6 23  1  0
 23 24  2  0
 24  3  1  0
 21  7  1  0
 19 12  1  0
M  END
$$$$
