
     RDKit          3D

 13 14  0  0  0  0  0  0  0  0999 V2000
  -23.9325   16.2659  -23.1868 O   0  0  0  0  0  0  0  0  0  0  0  0
  -24.9639   15.3232  -23.1035 C   0  0  0  0  0  0  0  0  0  0  0  0
  -24.6909   14.0669  -22.6002 C   0  0  0  0  0  0  0  0  0  0  0  0
  -23.0584   13.6976  -22.0825 Cl  0  0  0  0  0  0  0  0  0  0  0  0
  -25.7175   13.1244  -22.5158 C   0  0  0  0  0  0  0  0  0  0  0  0
  -26.9907   13.4129  -22.9197 C   0  0  0  0  0  0  0  0  0  0  0  0
  -28.2785   12.2117  -22.8073 Cl  0  0  0  0  0  0  0  0  0  0  0  0
  -27.2319   14.6769  -23.4181 C   0  0  0  0  0  0  0  0  0  0  0  0
  -28.5100   15.0291  -23.8454 C   0  0  0  0  0  0  0  0  0  0  0  0
  -28.7827   16.2843  -24.3483 C   0  0  0  0  0  0  0  0  0  0  0  0
  -27.7315   17.1748  -24.4086 C   0  0  0  0  0  0  0  0  0  0  0  0
  -26.4880   16.8723  -24.0069 N   0  0  0  0  0  0  0  0  0  0  0  0
  -26.2477   15.6276  -23.5154 C   0  0  0  0  0  0  0  0  0  0  0  0
  1  2  1  0
  2  3  2  0
  3  4  1  0
  3  5  1  0
  5  6  2  0
  6  7  1  0
  6  8  1  0
  8  9  2  0
  9 10  1  0
 10 11  2  0
 11 12  1  0
 12 13  2  0
 13  2  1  0
 13  8  1  0
M  END
$$$$
