
     RDKit          3D

 35 38  0  0  0  0  0  0  0  0999 V2000
  -26.0620   23.6122  -30.0210 C   0  0  0  0  0  0  0  0  0  0  0  0
  -25.4297   24.2023  -28.8035 C   0  0  0  0  0  0  0  0  0  0  0  0
  -25.1810   25.5524  -28.6691 C   0  0  0  0  0  0  0  0  0  0  0  0
  -24.6016   26.1365  -27.5665 C   0  0  0  0  0  0  0  0  0  0  0  0
  -24.3724   27.5706  -27.5005 C   0  0  0  0  0  0  0  0  0  0  0  0
  -23.1361   27.9969  -27.0434 C   0  0  0  0  0  0  0  0  0  0  0  0
  -22.8281   29.3205  -26.9469 C   0  0  0  0  0  0  0  0  0  0  0  0
  -21.6001   29.7998  -26.4934 O   0  0  0  0  0  0  0  0  0  0  0  0
  -23.7709   30.2788  -27.3141 C   0  0  0  0  0  0  0  0  0  0  0  0
  -25.0117   29.8876  -27.7732 C   0  0  0  0  0  0  0  0  0  0  0  0
  -25.2886   28.5319  -27.8574 C   0  0  0  0  0  0  0  0  0  0  0  0
  -26.8537   28.0136  -28.4293 Cl  0  0  0  0  0  0  0  0  0  0  0  0
  -24.2436   25.2932  -26.5161 C   0  0  0  0  0  0  0  0  0  0  0  0
  -24.4806   23.9409  -26.6249 C   0  0  0  0  0  0  0  0  0  0  0  0
  -24.1338   23.1268  -25.6136 N   0  0  0  0  0  0  0  0  0  0  0  0
  -24.3378   21.8261  -25.6705 N   0  0  0  0  0  0  0  0  0  0  0  0
  -24.8987   21.2387  -26.7299 C   0  0  0  0  0  0  0  0  0  0  0  0
  -25.1321   19.8522  -26.8328 N   0  0  0  0  0  0  0  0  0  0  0  0
  -24.8014   18.8661  -25.9047 C   0  0  0  0  0  0  0  0  0  0  0  0
  -25.2304   17.5391  -26.1044 C   0  0  0  0  0  0  0  0  0  0  0  0
  -24.9360   16.5332  -25.2442 C   0  0  0  0  0  0  0  0  0  0  0  0
  -24.1760   16.7454  -24.0836 C   0  0  0  0  0  0  0  0  0  0  0  0
  -23.9335   15.6753  -23.2759 O   0  0  0  0  0  0  0  0  0  0  0  0
  -23.1821   15.6635  -22.1240 C   0  0  0  0  0  0  0  0  0  0  0  0
  -21.7398   15.9315  -22.3902 C   0  0  0  0  0  0  0  0  0  0  0  0
  -21.2292   14.8982  -23.2707 N   0  0  0  0  0  0  0  0  0  0  0  0
  -21.1621   13.6596  -22.5791 C   0  0  0  0  0  0  0  0  0  0  0  0
  -19.6633   13.3248  -22.5072 C   0  0  0  0  0  0  0  0  0  0  0  0
  -19.1600   13.9061  -23.8054 C   0  0  0  0  0  0  0  0  0  0  0  0
  -19.9672   15.1918  -23.8702 C   0  0  0  0  0  0  0  0  0  0  0  0
  -23.7587   18.0336  -23.8862 C   0  0  0  0  0  0  0  0  0  0  0  0
  -24.0608   19.0673  -24.7709 C   0  0  0  0  0  0  0  0  0  0  0  0
  -25.2555   22.0628  -27.7660 N   0  0  0  0  0  0  0  0  0  0  0  0
  -25.0674   23.3864  -27.7518 C   0  0  0  0  0  0  0  0  0  0  0  0
  -23.1753   20.1134  -25.4144 Cl  0  0  0  0  0  0  0  0  0  0  0  0
  1  2  1  0
  2  3  2  0
  3  4  1  0
  4  5  1  0
  5  6  2  0
  6  7  1  0
  7  8  1  0
  7  9  2  0
  9 10  1  0
 10 11  2  0
 11 12  1  0
  4 13  2  0
 13 14  1  0
 14 15  2  0
 15 16  1  0
 16 17  2  0
 17 18  1  0
 18 19  1  0
 19 20  2  0
 20 21  1  0
 21 22  2  0
 22 23  1  0
 23 24  1  0
 24 25  1  0
 25 26  1  0
 26 27  1  0
 27 28  1  0
 28 29  1  0
 29 30  1  0
 22 31  1  0
 31 32  2  0
 17 33  1  0
 33 34  2  0
 34  2  1  0
 11  5  1  0
 34 14  1  0
 32 19  1  0
 30 26  1  0
M  END
$$$$
