
     RDKit          3D

 29 32  0  0  0  0  0  0  0  0999 V2000
  -40.7285    7.4468  -35.8422 C   0  0  0  0  0  0  0  0  0  0  0  0
  -42.1631    6.9426  -35.9365 C   0  0  0  0  0  0  0  0  0  0  0  0
  -43.0280    8.0046  -36.4921 C   0  0  2  0  0  0  0  0  0  0  0  0
  -43.4450    9.0320  -35.5587 N   0  0  0  0  0  0  0  0  0  0  0  0
  -44.0829    8.7225  -34.3168 C   0  0  0  0  0  0  0  0  0  0  0  0
  -44.8576    7.7155  -34.3729 O   0  0  0  0  0  0  0  0  0  0  0  0
  -43.8877    9.4541  -33.0840 C   0  0  0  0  0  0  0  0  0  0  0  0
  -44.8593   10.3219  -32.5572 C   0  0  0  0  0  0  0  0  0  0  0  0
  -46.1214   10.4823  -33.2909 C   0  0  0  0  0  0  0  0  0  0  0  0
  -44.6455   11.0146  -31.3958 C   0  0  0  0  0  0  0  0  0  0  0  0
  -45.6669   11.9035  -30.8742 C   0  0  0  0  0  0  0  0  0  0  0  0
  -46.9762   11.4241  -30.7371 C   0  0  0  0  0  0  0  0  0  0  0  0
  -47.9977   12.2032  -30.2789 C   0  0  0  0  0  0  0  0  0  0  0  0
  -47.7229   13.5076  -29.9411 C   0  0  0  0  0  0  0  0  0  0  0  0
  -46.4575   14.0338  -30.0546 C   0  0  0  0  0  0  0  0  0  0  0  0
  -45.4493   13.2248  -30.5191 C   0  0  0  0  0  0  0  0  0  0  0  0
  -43.4846   10.8726  -30.7356 N   0  0  0  0  0  0  0  0  0  0  0  0
  -42.5130   10.0548  -31.1951 C   0  0  0  0  0  0  0  0  0  0  0  0
  -41.3169    9.9143  -30.5505 C   0  0  0  0  0  0  0  0  0  0  0  0
  -40.2999    9.1074  -31.0077 C   0  0  0  0  0  0  0  0  0  0  0  0
  -40.4749    8.3975  -32.1716 C   0  0  0  0  0  0  0  0  0  0  0  0
  -41.6996    8.5249  -32.8545 C   0  0  0  0  0  0  0  0  0  0  0  0
  -42.7110    9.3327  -32.3865 C   0  0  0  0  0  0  0  0  0  0  0  0
  -44.2849    7.4652  -37.0890 C   0  0  0  0  0  0  0  0  0  0  0  0
  -45.3353    8.3139  -37.4072 C   0  0  0  0  0  0  0  0  0  0  0  0
  -46.5311    7.8994  -37.9349 C   0  0  0  0  0  0  0  0  0  0  0  0
  -46.7236    6.5498  -38.1736 C   0  0  0  0  0  0  0  0  0  0  0  0
  -45.7063    5.6706  -37.8720 C   0  0  0  0  0  0  0  0  0  0  0  0
  -44.5008    6.1311  -37.3344 C   0  0  0  0  0  0  0  0  0  0  0  0
  1  2  1  0
  3  2  1  1
  3  4  1  0
  4  5  1  0
  5  6  2  0
  5  7  1  0
  7  8  2  0
  8  9  1  0
  8 10  1  0
 10 11  1  0
 11 12  2  0
 12 13  1  0
 13 14  2  0
 14 15  1  0
 15 16  2  0
 10 17  2  0
 17 18  1  0
 18 19  2  0
 19 20  1  0
 20 21  2  0
 21 22  1  0
 22 23  2  0
  3 24  1  0
 24 25  2  0
 25 26  1  0
 26 27  2  0
 27 28  1  0
 28 29  2  0
 23  7  1  0
 29 24  1  0
 16 11  1  0
 23 18  1  0
M  END
$$$$
