
     RDKit          3D

 20 22  0  0  0  0  0  0  0  0999 V2000
  -17.2269   41.5116  -19.3751 O   0  0  0  0  0  0  0  0  0  0  0  0
  -17.0208   42.1040  -20.4634 C   0  0  0  0  0  0  0  0  0  0  0  0
  -17.4678   41.5109  -21.6556 N   0  0  0  0  0  0  0  0  0  0  0  0
  -17.9529   40.2051  -21.7854 C   0  0  0  0  0  0  0  0  0  0  0  0
  -17.3429   39.2868  -22.6008 C   0  0  0  0  0  0  0  0  0  0  0  0
  -17.8724   37.9987  -22.6900 C   0  0  0  0  0  0  0  0  0  0  0  0
  -18.9985   37.6103  -21.9812 C   0  0  0  0  0  0  0  0  0  0  0  0
  -19.5275   36.3002  -22.0792 N   0  0  0  0  0  0  0  0  0  0  0  0
  -18.9439   35.2151  -22.8156 C   0  0  0  0  0  0  0  0  0  0  0  0
  -20.0844   34.2609  -23.1055 C   0  0  0  0  0  0  0  0  0  0  0  0
  -20.9803   34.4608  -21.8961 C   0  0  0  0  0  0  0  0  0  0  0  0
  -20.7585   35.8698  -21.4335 C   0  0  0  0  0  0  0  0  0  0  0  0
  -19.5918   38.5392  -21.1744 C   0  0  0  0  0  0  0  0  0  0  0  0
  -19.0699   39.8242  -21.0805 C   0  0  0  0  0  0  0  0  0  0  0  0
  -16.3297   43.3892  -20.5114 C   0  0  0  0  0  0  0  0  0  0  0  0
  -15.8707   44.1278  -19.4138 C   0  0  0  0  0  0  0  0  0  0  0  0
  -15.2783   45.2738  -19.8898 C   0  0  0  0  0  0  0  0  0  0  0  0
  -15.3901   45.2057  -21.2563 C   0  0  0  0  0  0  0  0  0  0  0  0
  -14.7211   46.5652  -22.4368 Br  0  0  0  0  0  0  0  0  0  0  0  0
  -16.0006   44.1051  -21.5564 O   0  0  0  0  0  0  0  0  0  0  0  0
  1  2  2  0
  2  3  1  0
  3  4  1  0
  4  5  2  0
  5  6  1  0
  6  7  2  0
  7  8  1  0
  8  9  1  0
  9 10  1  0
 10 11  1  0
 11 12  1  0
  7 13  1  0
 13 14  2  0
  2 15  1  0
 15 16  2  0
 16 17  1  0
 17 18  2  0
 18 19  1  0
 18 20  1  0
 14  4  1  0
 20 15  1  0
 12  8  1  0
M  END
$$$$
