
     RDKit          3D

 18 13  0  0  0  0  0  0  0  0999 V2000
  -19.2665   32.4438  -22.1039 N   0  0  0  0  0  0  0  0  0  0  0  0
  -19.2838   33.8921  -21.8183 C   0  0  0  0  0  0  0  0  0  0  0  0
  -20.5061   34.5341  -22.3400 C   0  0  0  0  0  0  0  0  0  0  0  0
  -20.6182   35.9692  -22.0762 C   0  0  0  0  0  0  0  0  0  0  0  0
  -19.6402   36.9334  -22.5888 C   0  0  0  0  0  0  0  0  0  0  0  0
  -19.5221   36.8811  -23.9985 O   0  0  0  0  0  0  0  0  0  0  0  0
  -20.4454   38.6078  -22.2356 P   0  0  0  0  0  5  0  0  0  0  0  0
  -21.1922   38.5253  -20.9305 O   0  0  0  0  0  0  0  0  0  0  0  0
  -21.5426   38.8897  -23.4695 O   0  0  0  0  0  1  0  0  0  0  0  0
  -19.2606   39.7817  -22.1104 O   0  0  0  0  0  1  0  0  0  0  0  0
  -18.0049   36.9654  -21.8749 P   0  0  0  0  0  5  0  0  0  0  0  0
  -17.8728   36.2818  -20.5530 O   0  0  0  0  0  0  0  0  0  0  0  0
  -17.4957   38.6078  -21.6459 O   0  0  0  0  0  1  0  0  0  0  0  0
  -16.8212   36.3211  -22.9301 O   0  0  0  0  0  1  0  0  0  0  0  0
  -20.0195   35.9344  -22.4590 O   0  0  0  0  0  0  0  0  0  0  0  0
  -20.0160   35.9340  -22.4567 O   0  0  0  0  0  0  0  0  0  0  0  0
  -19.9997   35.9346  -22.4461 O   0  0  0  0  0  0  0  0  0  0  0  0
  -19.7016   35.8542  -22.2368 Na  0  0  0  0  0 15  0  0  0  0  0  0
  1  2  1  0
  2  3  1  0
  3  4  1  0
  4  5  1  0
  5  6  1  0
  5  7  1  0
  7  8  2  0
  7  9  1  0
  7 10  1  0
  5 11  1  0
 11 12  2  0
 11 13  1  0
 11 14  1  0
M  CHG  5   9  -1  10  -1  13  -1  14  -1  18   1
M  END
$$$$
