
     RDKit          3D

 13 14  0  0  0  0  0  0  0  0999 V2000
  -22.0743   27.3144  -34.7314 S   0  0  0  0  0  0  0  0  0  0  0  0
  -23.4888   27.2183  -35.8501 C   0  0  0  0  0  0  0  0  0  0  0  0
  -23.7921   28.0630  -36.8495 N   0  0  0  0  0  0  0  0  0  0  0  0
  -24.9059   27.6221  -37.4098 N   0  0  0  0  0  0  0  0  0  0  0  0
  -25.3103   26.5138  -36.7810 C   0  0  0  0  0  0  0  0  0  0  0  0
  -26.4993   25.6893  -37.0686 C   0  0  0  0  0  0  0  0  0  0  0  0
  -27.6637   26.2327  -37.5066 C   0  0  0  0  0  0  0  0  0  0  0  0
  -28.7490   25.3868  -37.7583 C   0  0  0  0  0  0  0  0  0  0  0  0
  -28.6620   24.0193  -37.5721 C   0  0  0  0  0  0  0  0  0  0  0  0
  -27.4818   23.5025  -37.1320 C   0  0  0  0  0  0  0  0  0  0  0  0
  -26.4236   24.3245  -36.8862 C   0  0  0  0  0  0  0  0  0  0  0  0
  -24.8930   23.6465  -36.3147 Cl  0  0  0  0  0  0  0  0  0  0  0  0
  -24.4290   26.3053  -35.8484 O   0  0  0  0  0  0  0  0  0  0  0  0
  1  2  1  0
  2  3  2  0
  3  4  1  0
  4  5  2  0
  5  6  1  0
  6  7  2  0
  7  8  1  0
  8  9  2  0
  9 10  1  0
 10 11  2  0
 11 12  1  0
  5 13  1  0
 13  2  1  0
 11  6  1  0
M  END
$$$$
