
     RDKit          3D

 20 22  0  0  0  0  0  0  0  0999 V2000
  -14.8853   45.5775  -20.5698 C   0  0  0  0  0  0  0  0  0  0  0  0
  -15.5580   44.8563  -19.5567 O   0  0  0  0  0  0  0  0  0  0  0  0
  -16.3997   43.8257  -19.9381 C   0  0  0  0  0  0  0  0  0  0  0  0
  -16.0639   42.9681  -20.9631 C   0  0  0  0  0  0  0  0  0  0  0  0
  -16.9198   41.9430  -21.3297 C   0  0  0  0  0  0  0  0  0  0  0  0
  -18.1269   41.7338  -20.6995 C   0  0  0  0  0  0  0  0  0  0  0  0
  -18.9615   40.6342  -21.1498 C   0  0  0  0  0  0  0  0  0  0  0  0
  -19.6574   40.6741  -22.3410 C   0  0  0  0  0  0  0  0  0  0  0  0
  -20.4110   39.6953  -22.7597 O   0  0  0  0  0  0  0  0  0  0  0  0
  -20.5825   38.5799  -22.0938 C   0  0  0  0  0  0  0  0  0  0  0  0
  -21.3967   37.6058  -22.6173 C   0  0  0  0  0  0  0  0  0  0  0  0
  -21.5831   36.4145  -21.9115 C   0  0  0  0  0  0  0  0  0  0  0  0
  -22.3971   35.3976  -22.3983 O   0  0  0  0  0  0  0  0  0  0  0  0
  -20.9261   36.2710  -20.6966 C   0  0  0  0  0  0  0  0  0  0  0  0
  -20.1058   37.2755  -20.1889 C   0  0  0  0  0  0  0  0  0  0  0  0
  -19.9240   38.4503  -20.8883 C   0  0  0  0  0  0  0  0  0  0  0  0
  -19.1109   39.4660  -20.4022 C   0  0  0  0  0  0  0  0  0  0  0  0
  -18.5158   39.3535  -19.3165 O   0  0  0  0  0  0  0  0  0  0  0  0
  -18.4610   42.5927  -19.6744 C   0  0  0  0  0  0  0  0  0  0  0  0
  -17.6194   43.6281  -19.2885 C   0  0  0  0  0  0  0  0  0  0  0  0
  1  2  1  0
  2  3  1  0
  3  4  2  0
  4  5  1  0
  5  6  2  0
  6  7  1  0
  7  8  2  0
  8  9  1  0
  9 10  1  0
 10 11  2  0
 11 12  1  0
 12 13  1  0
 12 14  2  0
 14 15  1  0
 15 16  2  0
 16 17  1  0
 17 18  2  0
  6 19  1  0
 19 20  2  0
 20  3  1  0
 17  7  1  0
 16 10  1  0
M  END
$$$$
