
     RDKit          3D

 12 13  0  0  0  0  0  0  0  0999 V2000
  -17.3540   37.2281  -21.4917 O   0  0  0  0  0  0  0  0  0  0  0  0
  -18.5904   37.0796  -21.3148 C   0  0  0  0  0  0  0  0  0  0  0  0
  -19.3594   38.2451  -21.2432 O   0  0  0  0  0  0  0  0  0  0  0  0
  -19.2148   35.7699  -21.1877 C   0  0  0  0  0  0  0  0  0  0  0  0
  -18.5836   34.5579  -21.3076 C   0  0  0  0  0  0  0  0  0  0  0  0
  -19.5041   33.5354  -21.1234 C   0  0  0  0  0  0  0  0  0  0  0  0
  -19.4234   32.1599  -21.1346 C   0  0  0  0  0  0  0  0  0  0  0  0
  -20.5244   31.3793  -20.9158 C   0  0  0  0  0  0  0  0  0  0  0  0
  -21.7317   32.0146  -20.6808 C   0  0  0  0  0  0  0  0  0  0  0  0
  -21.8117   33.3828  -20.6697 C   0  0  0  0  0  0  0  0  0  0  0  0
  -20.7165   34.1781  -20.8875 C   0  0  0  0  0  0  0  0  0  0  0  0
  -20.5028   35.5219  -20.9339 N   0  0  0  0  0  0  0  0  0  0  0  0
  1  2  2  0
  2  3  1  0
  2  4  1  0
  4  5  2  0
  5  6  1  0
  6  7  2  0
  7  8  1  0
  8  9  2  0
  9 10  1  0
 10 11  2  0
 11 12  1  0
 12  4  1  0
 11  6  1  0
M  END
$$$$
