
     RDKit          3D

 24 26  0  0  0  0  0  0  0  0999 V2000
  -12.9744   13.0938  -24.9692 C   0  0  0  0  0  0  0  0  0  0  0  0
  -11.9096   12.9693  -26.0441 C   0  0  0  0  0  0  0  0  0  0  0  0
  -10.5787   13.3406  -25.4263 C   0  0  0  0  0  0  0  0  0  0  0  0
  -12.2273   14.0080  -27.0907 C   0  0  0  0  0  0  0  0  0  0  0  0
  -13.2934   13.4272  -27.9710 C   0  0  0  0  0  0  0  0  0  0  0  0
  -13.8374   14.4768  -28.7984 N   0  0  0  0  0  0  0  0  0  0  0  0
  -15.1922   14.7106  -29.0663 C   0  0  0  0  0  0  0  0  0  0  0  0
  -16.2173   13.8458  -28.7560 C   0  0  0  0  0  0  0  0  0  0  0  0
  -17.5478   14.1201  -29.0250 C   0  0  0  0  0  0  0  0  0  0  0  0
  -17.8749   15.3127  -29.6327 C   0  0  0  0  0  0  0  0  0  0  0  0
  -19.2134   15.6400  -29.9020 N   0  0  0  0  0  0  0  0  0  0  0  0
  -20.0736   14.7044  -30.5045 C   0  0  0  0  0  0  0  0  0  0  0  0
  -19.6343   13.5054  -31.0180 C   0  0  0  0  0  0  0  0  0  0  0  0
  -20.5134   12.6132  -31.6227 C   0  0  0  0  0  0  0  0  0  0  0  0
  -21.8462   12.8864  -31.7326 C   0  0  0  0  0  0  0  0  0  0  0  0
  -22.3024   14.0814  -31.2235 C   0  0  0  0  0  0  0  0  0  0  0  0
  -21.4410   14.9553  -30.6314 C   0  0  0  0  0  0  0  0  0  0  0  0
  -16.8701   16.1930  -29.9525 C   0  0  0  0  0  0  0  0  0  0  0  0
  -15.5463   15.9112  -29.6807 C   0  0  0  0  0  0  0  0  0  0  0  0
  -12.6119   12.3582  -28.8024 C   0  0  0  0  0  0  0  0  0  0  0  0
  -11.7339   11.4699  -27.9510 C   0  0  0  0  0  0  0  0  0  0  0  0
  -10.2729   11.5571  -28.3391 C   0  0  0  0  0  0  0  0  0  0  0  0
  -12.1573   10.0277  -28.2785 C   0  0  0  0  0  0  0  0  0  0  0  0
  -11.9525   11.6291  -26.5396 N   0  0  0  0  0  0  0  0  0  0  0  0
  1  2  1  0
  2  3  1  0
  2  4  1  0
  4  5  1  0
  5  6  1  0
  6  7  1  0
  7  8  2  0
  8  9  1  0
  9 10  2  0
 10 11  1  0
 11 12  1  0
 12 13  2  0
 13 14  1  0
 14 15  2  0
 15 16  1  0
 16 17  2  0
 10 18  1  0
 18 19  2  0
  5 20  1  0
 20 21  1  0
 21 22  1  0
 21 23  1  0
 21 24  1  0
 24  2  1  0
 19  7  1  0
 17 12  1  0
M  END
$$$$
