
     RDKit          3D

 38 42  0  0  0  0  0  0  0  0999 V2000
  -16.5214   41.3910  -18.0373 O   0  0  0  0  0  0  0  0  0  0  0  0
  -16.3293   42.3523  -18.8296 C   0  0  0  0  0  0  0  0  0  0  0  0
  -15.1619   43.0503  -18.7164 O   0  0  0  0  0  0  0  0  0  0  0  0
  -13.9460   42.4865  -18.3155 C   0  0  0  0  0  0  0  0  0  0  0  0
  -12.9950   42.5665  -19.5042 C   0  0  0  0  0  0  0  0  0  0  0  0
  -13.3103   41.6309  -20.4673 F   0  0  0  0  0  0  0  0  0  0  0  0
  -13.1004   43.8533  -20.0083 F   0  0  0  0  0  0  0  0  0  0  0  0
  -11.7217   42.3894  -18.9928 F   0  0  0  0  0  0  0  0  0  0  0  0
  -13.3924   43.2404  -17.1263 C   0  0  0  0  0  0  0  0  0  0  0  0
  -14.3310   43.1473  -16.1156 F   0  0  0  0  0  0  0  0  0  0  0  0
  -12.2235   42.6200  -16.7364 F   0  0  0  0  0  0  0  0  0  0  0  0
  -13.1506   44.5544  -17.4109 F   0  0  0  0  0  0  0  0  0  0  0  0
  -17.2788   42.7139  -19.8119 N   0  0  0  0  0  0  0  0  0  0  0  0
  -18.6764   42.4801  -19.5573 C   0  0  0  0  0  0  0  0  0  0  0  0
  -19.4322   42.0779  -20.8043 C   0  0  0  0  0  0  0  0  0  0  0  0
  -18.3579   41.6407  -21.8140 C   0  0  0  0  0  0  0  0  0  0  0  0
  -19.0682   40.8624  -22.8607 C   0  0  0  0  0  0  0  0  0  0  0  0
  -18.0969   40.6253  -23.8700 O   0  0  0  0  0  0  0  0  0  0  0  0
  -19.4939   39.5105  -22.3886 C   0  0  0  0  0  0  0  0  0  0  0  0
  -20.6677   39.3699  -21.6928 C   0  0  0  0  0  0  0  0  0  0  0  0
  -21.0472   38.1247  -21.2606 C   0  0  0  0  0  0  0  0  0  0  0  0
  -20.2567   37.0297  -21.5235 C   0  0  0  0  0  0  0  0  0  0  0  0
  -19.0729   37.1304  -22.2182 C   0  0  0  0  0  0  0  0  0  0  0  0
  -18.7132   38.3875  -22.6411 C   0  0  0  0  0  0  0  0  0  0  0  0
  -18.5306   35.8651  -22.3102 O   0  0  0  0  0  0  0  0  0  0  0  0
  -19.1278   35.0854  -21.2996 C   0  0  0  0  0  0  0  0  0  0  0  0
  -20.4212   35.6884  -21.1971 O   0  0  0  0  0  0  0  0  0  0  0  0
  -20.1555   41.5910  -23.5489 C   0  0  0  0  0  0  0  0  0  0  0  0
  -20.1654   41.8159  -24.9056 C   0  0  0  0  0  0  0  0  0  0  0  0
  -21.2074   42.5143  -25.5176 C   0  0  0  0  0  0  0  0  0  0  0  0
  -22.2639   43.0013  -24.7700 C   0  0  0  0  0  0  0  0  0  0  0  0
  -22.2552   42.7770  -23.4126 C   0  0  0  0  0  0  0  0  0  0  0  0
  -21.2180   42.0861  -22.8300 C   0  0  0  0  0  0  0  0  0  0  0  0
  -23.4099   43.3631  -22.9291 O   0  0  0  0  0  0  0  0  0  0  0  0
  -24.0247   44.1359  -23.9452 C   0  0  0  0  0  0  0  0  0  0  0  0
  -23.4043   43.7159  -25.1315 O   0  0  0  0  0  0  0  0  0  0  0  0
  -17.6642   42.8830  -22.2354 C   0  0  0  0  0  0  0  0  0  0  0  0
  -16.7890   43.3120  -21.0445 C   0  0  0  0  0  0  0  0  0  0  0  0
  1  2  2  0
  2  3  1  0
  3  4  1  0
  4  5  1  0
  5  6  1  0
  5  7  1  0
  5  8  1  0
  4  9  1  0
  9 10  1  0
  9 11  1  0
  9 12  1  0
  2 13  1  0
 13 14  1  0
 14 15  1  0
 15 16  1  0
 16 17  1  0
 17 18  1  0
 17 19  1  0
 19 20  2  0
 20 21  1  0
 21 22  2  0
 22 23  1  0
 23 24  2  0
 23 25  1  0
 25 26  1  0
 26 27  1  0
 17 28  1  0
 28 29  2  0
 29 30  1  0
 30 31  2  0
 31 32  1  0
 32 33  2  0
 32 34  1  0
 34 35  1  0
 35 36  1  0
 16 37  1  0
 37 38  1  0
 38 13  1  0
 24 19  1  0
 33 28  1  0
 27 22  1  0
 36 31  1  0
M  END
$$$$
