
     RDKit          3D

 29 32  0  0  0  0  0  0  0  0999 V2000
  -19.6099   32.5512  -24.1766 C   0  0  0  0  0  0  0  0  0  0  0  0
  -20.3168   33.8496  -24.0433 N   0  0  0  0  0  0  0  0  0  0  0  0
  -19.7503   34.8356  -23.2048 C   0  0  0  0  0  0  0  0  0  0  0  0
  -18.5932   34.5733  -22.7059 O   0  0  0  0  0  0  0  0  0  0  0  0
  -20.3688   36.1029  -22.8723 C   0  0  0  0  0  0  0  0  0  0  0  0
  -21.6469   36.5469  -23.0842 C   0  0  0  0  0  0  0  0  0  0  0  0
  -22.8037   35.8284  -23.7172 C   0  0  0  0  0  0  0  0  0  0  0  0
  -21.7317   37.7721  -22.6255 O   0  0  0  0  0  0  0  0  0  0  0  0
  -20.5763   38.1696  -22.1176 C   0  0  0  0  0  0  0  0  0  0  0  0
  -20.1827   39.3628  -21.5262 C   0  0  0  0  0  0  0  0  0  0  0  0
  -18.9110   39.5637  -21.0609 C   0  0  0  0  0  0  0  0  0  0  0  0
  -18.4845   40.7294  -20.4705 O   0  0  0  0  0  0  0  0  0  0  0  0
  -18.9456   41.3547  -19.3585 C   0  0  0  0  0  0  0  0  0  0  0  0
  -19.6213   40.7685  -18.3649 N   0  0  0  0  0  0  0  0  0  0  0  0
  -20.0794   41.3766  -17.2659 C   0  0  0  0  0  0  0  0  0  0  0  0
  -19.8392   42.7089  -17.1433 N   0  0  0  0  0  0  0  0  0  0  0  0
  -19.1636   43.3638  -18.1076 C   0  0  0  0  0  0  0  0  0  0  0  0
  -18.9084   44.7355  -17.9960 C   0  0  0  0  0  0  0  0  0  0  0  0
  -18.2178   45.4096  -18.9798 C   0  0  0  0  0  0  0  0  0  0  0  0
  -17.9744   46.7742  -18.8494 O   0  0  0  0  0  0  0  0  0  0  0  0
  -18.7280   47.6207  -18.0300 C   0  0  0  0  0  0  0  0  0  0  0  0
  -17.7483   44.7739  -20.1116 C   0  0  0  0  0  0  0  0  0  0  0  0
  -17.0549   45.4716  -21.0905 O   0  0  0  0  0  0  0  0  0  0  0  0
  -15.9603   44.8219  -21.7097 C   0  0  0  0  0  0  0  0  0  0  0  0
  -18.0063   43.4202  -20.2104 C   0  0  0  0  0  0  0  0  0  0  0  0
  -18.6996   42.7374  -19.2253 C   0  0  0  0  0  0  0  0  0  0  0  0
  -17.9838   38.5071  -21.1975 C   0  0  0  0  0  0  0  0  0  0  0  0
  -18.3888   37.3375  -21.7829 C   0  0  0  0  0  0  0  0  0  0  0  0
  -19.6736   37.1456  -22.2486 C   0  0  0  0  0  0  0  0  0  0  0  0
  1  2  1  0
  2  3  1  0
  3  4  2  0
  3  5  1  0
  5  6  2  0
  6  7  1  0
  6  8  1  0
  8  9  1  0
  9 10  2  0
 10 11  1  0
 11 12  1  0
 12 13  1  0
 13 14  2  0
 14 15  1  0
 15 16  2  0
 16 17  1  0
 17 18  2  0
 18 19  1  0
 19 20  1  0
 20 21  1  0
 19 22  2  0
 22 23  1  0
 23 24  1  0
 22 25  1  0
 25 26  2  0
 11 27  2  0
 27 28  1  0
 28 29  2  0
 29  5  1  0
 29  9  1  0
 26 13  1  0
 26 17  1  0
M  END
$$$$
