
     RDKit          3D

 22 22  0  0  0  0  0  0  0  0999 V2000
  -10.9573   10.2930  -28.3328 C   0  0  0  0  0  0  0  0  0  0  0  0
  -11.2208   10.7704  -26.9145 C   0  0  0  0  0  0  0  0  0  0  0  0
  -11.0293   12.2832  -26.8238 C   0  0  0  0  0  0  0  0  0  0  0  0
  -12.0143   12.9300  -27.7743 C   0  0  0  0  0  0  0  0  0  0  0  0
  -13.3441   12.6096  -27.4426 O   0  0  0  0  0  0  0  0  0  0  0  0
  -14.3700   13.1164  -28.2157 C   0  0  0  0  0  0  0  0  0  0  0  0
  -14.1339   13.9270  -29.3017 C   0  0  0  0  0  0  0  0  0  0  0  0
  -15.1438   14.4421  -30.0862 C   0  0  0  0  0  0  0  0  0  0  0  0
  -16.4341   14.1396  -29.7770 C   0  0  0  0  0  0  0  0  0  0  0  0
  -17.5468   14.6403  -30.5794 C   0  0  0  0  0  0  0  0  0  0  0  0
  -17.2463   15.3287  -31.5623 O   0  0  0  0  0  0  0  0  0  0  0  0
  -18.9139   14.3220  -30.2062 C   0  0  0  0  0  0  0  0  0  0  0  0
  -20.0616   14.8844  -30.9120 C   0  0  0  0  0  0  0  0  0  0  0  0
  -20.3484   16.2641  -30.9268 N   0  0  0  0  0  0  0  0  0  0  0  0
  -21.6959   16.3773  -31.5328 C   0  0  0  0  0  0  0  0  0  0  0  0
  -21.6556   16.9009  -32.9357 C   0  0  0  0  0  0  0  0  0  0  0  0
  -21.1458   18.3407  -32.9387 C   0  0  0  0  0  0  0  0  0  0  0  0
  -20.2350   18.5135  -31.7302 C   0  0  0  0  0  0  0  0  0  0  0  0
  -19.4525   17.1765  -31.5402 C   0  0  0  0  0  0  0  0  0  0  0  0
  -16.7077   13.3344  -28.7012 C   0  0  0  0  0  0  0  0  0  0  0  0
  -15.6801   12.8119  -27.9058 C   0  0  0  0  0  0  0  0  0  0  0  0
  -16.1173   14.0390  -29.6910 Cl  0  0  0  0  0  0  0  0  0  0  0  0
  1  2  1  0
  2  3  1  0
  3  4  1  0
  4  5  1  0
  5  6  1  0
  6  7  2  0
  7  8  1  0
  8  9  2  0
  9 10  1  0
 10 11  2  0
 10 12  1  0
 12 13  1  0
 13 14  1  0
 14 15  1  0
 15 16  1  0
 16 17  1  0
 17 18  1  0
 18 19  1  0
  9 20  1  0
 20 21  2  0
 21  6  1  0
 19 14  1  0
M  END
$$$$
