
     RDKit          3D

  9  7  0  0  0  0  0  0  0  0999 V2000
  -29.7529   16.4241  -23.8873 C   0  0  0  0  0  0  0  0  0  0  0  0
  -30.8800   14.9876  -23.9896 P   0  0  0  0  0  5  0  0  0  0  0  0
  -32.1797   15.4627  -24.5498 O   0  0  0  0  0  0  0  0  0  0  0  0
  -30.1215   13.8648  -25.0197 O   0  0  0  0  0  0  0  0  0  0  0  0
  -31.1373   14.2614  -22.3504 C   0  0  0  0  0  0  0  0  0  0  0  0
  -30.1319   13.1438  -22.1648 C   0  0  0  0  0  0  0  0  0  0  0  0
  -30.3280   12.5174  -20.7937 C   0  0  0  0  0  0  0  0  0  0  0  0
  -31.6311   11.9828  -20.6545 N   0  0  0  0  0  0  0  0  0  0  0  0
  -30.6871   13.5957  -21.9577 Cl  0  0  0  0  0  0  0  0  0  0  0  0
  1  2  1  0
  2  3  2  0
  2  4  1  0
  2  5  1  0
  5  6  1  0
  6  7  1  0
  7  8  1  0
M  END
$$$$
