
     RDKit          3D

 25 27  0  0  0  0  0  0  0  0999 V2000
  -25.5187   22.5349  -34.1148 C   0  0  0  0  0  0  0  0  0  0  0  0
  -26.4199   23.5865  -34.6673 C   0  0  0  0  0  0  0  0  0  0  0  0
  -27.7717   23.3032  -34.7669 N   0  0  0  0  0  0  0  0  0  0  0  0
  -28.6279   24.1516  -35.2865 C   0  0  0  0  0  0  0  0  0  0  0  0
  -30.0003   23.8738  -35.4605 C   0  0  0  0  0  0  0  0  0  0  0  0
  -30.8793   24.7057  -36.0704 C   0  0  0  0  0  0  0  0  0  0  0  0
  -30.4241   25.9143  -36.5594 C   0  0  0  0  0  0  0  0  0  0  0  0
  -29.0791   26.2323  -36.3911 C   0  0  0  0  0  0  0  0  0  0  0  0
  -28.2094   25.3620  -35.7629 C   0  0  0  0  0  0  0  0  0  0  0  0
  -26.9187   25.6481  -35.6884 N   0  0  0  0  0  0  0  0  0  0  0  0
  -25.9700   24.8113  -35.1384 C   0  0  0  0  0  0  0  0  0  0  0  0
  -24.3313   25.3527  -35.1589 S   0  0  0  0  0  0  0  0  0  0  0  0
  -23.3009   25.3680  -36.5304 C   0  0  0  0  0  0  0  0  0  0  0  0
  -23.9048   25.1092  -37.8661 C   0  0  0  0  0  0  0  0  0  0  0  0
  -24.6926   25.6946  -38.4225 O   0  0  0  0  0  0  0  0  0  0  0  0
  -23.2289   23.6783  -38.5480 N   0  0  0  0  0  0  0  0  0  0  0  0
  -23.2408   24.1292  -39.9428 C   0  0  0  0  0  0  0  0  0  0  0  0
  -24.1072   24.0837  -40.7455 O   0  0  0  0  0  0  0  0  0  0  0  0
  -21.8887   24.6520  -40.1788 N   0  0  0  0  0  0  0  0  0  0  0  0
  -21.2116   24.8612  -41.3439 C   0  0  0  0  0  0  0  0  0  0  0  0
  -20.7662   26.1855  -41.5993 C   0  0  0  0  0  0  0  0  0  0  0  0
  -20.2182   26.4303  -42.8521 C   0  0  0  0  0  0  0  0  0  0  0  0
  -20.0999   25.4400  -43.8381 C   0  0  0  0  0  0  0  0  0  0  0  0
  -20.5563   24.1750  -43.5258 C   0  0  0  0  0  0  0  0  0  0  0  0
  -21.1029   23.8943  -42.2920 C   0  0  0  0  0  0  0  0  0  0  0  0
  1  2  1  0
  2  3  2  0
  3  4  1  0
  4  5  2  0
  5  6  1  0
  6  7  2  0
  7  8  1  0
  8  9  2  0
  9 10  1  0
 10 11  2  0
 11 12  1  0
 12 13  1  0
 13 14  1  0
 14 15  2  0
 14 16  1  0
 16 17  1  0
 17 18  2  0
 17 19  1  0
 19 20  1  0
 20 21  2  0
 21 22  1  0
 22 23  2  0
 23 24  1  0
 24 25  2  0
 11  2  1  0
 25 20  1  0
  9  4  1  0
M  END
$$$$
