
     RDKit          3D

 26 28  0  0  0  0  0  0  0  0999 V2000
  -15.8312   43.1536  -21.0278 O   0  0  0  0  0  0  0  0  0  0  0  0
  -16.5002   42.7224  -20.0394 C   0  0  0  0  0  0  0  0  0  0  0  0
  -16.4052   43.4283  -18.8255 N   0  0  0  0  0  0  0  0  0  0  0  0
  -15.6464   44.6528  -18.7185 C   0  0  0  0  0  0  0  0  0  0  0  0
  -16.1808   45.8807  -19.0307 C   0  0  0  0  0  0  0  0  0  0  0  0
  -17.8299   45.9673  -19.5746 Cl  0  0  0  0  0  0  0  0  0  0  0  0
  -15.4374   47.0529  -18.9227 C   0  0  0  0  0  0  0  0  0  0  0  0
  -14.1570   46.9635  -18.4979 N   0  0  0  0  0  0  0  0  0  0  0  0
  -13.5896   45.7868  -18.1808 C   0  0  0  0  0  0  0  0  0  0  0  0
  -14.3398   44.6091  -18.2904 C   0  0  0  0  0  0  0  0  0  0  0  0
  -13.6152   43.0710  -17.8815 Cl  0  0  0  0  0  0  0  0  0  0  0  0
  -17.3059   41.5374  -20.2476 C   0  0  0  0  0  0  0  0  0  0  0  0
  -17.9535   40.9212  -19.2041 C   0  0  0  0  0  0  0  0  0  0  0  0
  -18.7302   39.7737  -19.4235 C   0  0  0  0  0  0  0  0  0  0  0  0
  -18.8460   39.2587  -20.6948 C   0  0  0  0  0  0  0  0  0  0  0  0
  -19.5937   38.1406  -20.9543 O   0  0  0  0  0  0  0  0  0  0  0  0
  -19.2474   36.8093  -20.7109 C   0  0  0  0  0  0  0  0  0  0  0  0
  -18.1380   36.4209  -21.4718 F   0  0  0  0  0  0  0  0  0  0  0  0
  -20.2856   35.9494  -21.0962 F   0  0  0  0  0  0  0  0  0  0  0  0
  -18.2012   39.8593  -21.7805 C   0  0  0  0  0  0  0  0  0  0  0  0
  -18.3266   39.3295  -23.0565 O   0  0  0  0  0  0  0  0  0  0  0  0
  -18.2931   40.2253  -24.1416 C   0  0  0  0  0  0  0  0  0  0  0  0
  -18.3317   39.5239  -25.4739 C   0  0  0  0  0  0  0  0  0  0  0  0
  -18.9397   40.1131  -26.6600 C   0  0  0  0  0  0  0  0  0  0  0  0
  -17.4481   40.1630  -26.5676 C   0  0  0  0  0  0  0  0  0  0  0  0
  -17.4552   40.9778  -21.5109 C   0  0  0  0  0  0  0  0  0  0  0  0
  1  2  2  0
  2  3  1  0
  3  4  1  0
  4  5  2  0
  5  6  1  0
  5  7  1  0
  7  8  2  0
  8  9  1  0
  9 10  2  0
 10 11  1  0
  2 12  1  0
 12 13  2  0
 13 14  1  0
 14 15  2  0
 15 16  1  0
 16 17  1  0
 17 18  1  0
 17 19  1  0
 15 20  1  0
 20 21  1  0
 21 22  1  0
 22 23  1  0
 23 24  1  0
 24 25  1  0
 20 26  2  0
 10  4  1  0
 26 12  1  0
 25 23  1  0
M  END
$$$$
