
     RDKit          3D

 24 25  0  0  0  0  0  0  0  0999 V2000
  -14.6931   19.2636  -35.7823 C   0  0  0  0  0  0  0  0  0  0  0  0
  -16.1051   18.8402  -36.1500 C   0  0  0  0  0  0  0  0  0  0  0  0
  -16.1329   17.8210  -37.2348 C   0  0  0  0  0  0  0  0  0  0  0  0
  -17.3974   16.9611  -37.1249 C   0  0  0  0  0  0  0  0  0  0  0  0
  -17.2582   15.7046  -37.9521 C   0  0  0  0  0  0  0  0  0  0  0  0
  -15.9348   18.2902  -38.5596 N   0  0  0  0  0  0  0  0  0  0  0  0
  -14.7651   18.0173  -39.3315 C   0  0  0  0  0  0  0  0  0  0  0  0
  -13.6596   17.3732  -38.8311 C   0  0  0  0  0  0  0  0  0  0  0  0
  -12.5709   17.1249  -39.6470 C   0  0  0  0  0  0  0  0  0  0  0  0
  -11.3624   16.4210  -39.0987 C   0  0  0  0  0  0  0  0  0  0  0  0
  -12.5626   17.4990  -40.9299 N   0  0  0  0  0  0  0  0  0  0  0  0
  -13.6143   18.1246  -41.4517 C   0  0  0  0  0  0  0  0  0  0  0  0
  -13.6763   18.5420  -42.7757 O   0  0  0  0  0  0  0  0  0  0  0  0
  -12.7099   18.2770  -43.7176 C   0  0  0  0  0  0  0  0  0  0  0  0
  -12.6754   17.1019  -44.4359 C   0  0  0  0  0  0  0  0  0  0  0  0
  -13.7334   16.0969  -44.1653 C   0  0  0  0  0  0  0  0  0  0  0  0
  -11.6763   16.8668  -45.3870 C   0  0  0  0  0  0  0  0  0  0  0  0
  -10.7005   17.8132  -45.6249 C   0  0  0  0  0  0  0  0  0  0  0  0
   -9.6189   17.5961  -46.6324 C   0  0  0  0  0  0  0  0  0  0  0  0
  -10.7283   18.9853  -44.9139 C   0  0  0  0  0  0  0  0  0  0  0  0
  -11.7306   19.2109  -43.9659 C   0  0  0  0  0  0  0  0  0  0  0  0
  -11.7563   20.4847  -43.1968 C   0  0  0  0  0  0  0  0  0  0  0  0
  -14.7116   18.3893  -40.6773 C   0  0  0  0  0  0  0  0  0  0  0  0
  -15.9194   19.0978  -41.2421 C   0  0  0  0  0  0  0  0  0  0  0  0
  1  2  1  0
  2  3  1  0
  3  4  1  0
  4  5  1  0
  3  6  1  0
  6  7  1  0
  7  8  2  0
  8  9  1  0
  9 10  1  0
  9 11  2  0
 11 12  1  0
 12 13  1  0
 13 14  1  0
 14 15  2  0
 15 16  1  0
 15 17  1  0
 17 18  2  0
 18 19  1  0
 18 20  1  0
 20 21  2  0
 21 22  1  0
 12 23  2  0
 23 24  1  0
 23  7  1  0
 21 14  1  0
M  END
$$$$
