
     RDKit          3D

 29 33  0  0  0  0  0  0  0  0999 V2000
  -26.1893   13.3550  -22.6178 C   0  0  0  0  0  0  0  0  0  0  0  0
  -24.9312   13.5207  -23.2709 N   0  0  0  0  0  0  0  0  0  0  0  0
  -25.0975   13.9542  -24.6941 C   0  0  0  0  0  0  0  0  0  0  0  0
  -25.7520   15.3287  -24.6300 C   0  0  0  0  0  0  0  0  0  0  0  0
  -24.8732   16.2612  -23.9433 N   0  0  0  0  0  0  0  0  0  0  0  0
  -24.4881   17.5170  -24.4813 C   0  0  0  0  0  0  0  0  0  0  0  0
  -23.2006   17.9853  -24.2799 C   0  0  0  0  0  0  0  0  0  0  0  0
  -22.7478   19.1891  -24.7826 C   0  0  0  0  0  0  0  0  0  0  0  0
  -23.6436   19.9560  -25.5311 C   0  0  0  0  0  0  0  0  0  0  0  0
  -23.6224   21.0596  -26.1371 N   0  0  0  0  0  0  0  0  0  0  0  0
  -24.5785   21.6220  -26.8046 C   0  0  0  0  0  0  0  0  0  0  0  0
  -25.3927   22.5031  -27.4782 C   0  0  0  0  0  0  0  0  0  0  0  0
  -24.9327   23.9112  -27.4340 C   0  0  0  0  0  0  0  0  0  0  0  0
  -23.7922   24.1326  -26.6553 N   0  0  0  0  0  0  0  0  0  0  0  0
  -25.5495   24.8949  -28.0777 C   0  0  0  0  0  0  0  0  0  0  0  0
  -25.0998   26.2636  -27.9652 C   0  0  0  0  0  0  0  0  0  0  0  0
  -24.0148   26.4464  -27.2188 F   0  0  0  0  0  0  0  0  0  0  0  0
  -25.8124   27.2193  -28.6158 C   0  0  0  0  0  0  0  0  0  0  0  0
  -26.9288   27.0336  -29.3881 C   0  0  0  0  0  0  0  0  0  0  0  0
  -27.3355   25.6899  -29.4777 C   0  0  0  0  0  0  0  0  0  0  0  0
  -26.6690   24.6814  -28.8449 C   0  0  0  0  0  0  0  0  0  0  0  0
  -27.1288   23.3945  -28.9133 N   0  0  0  0  0  0  0  0  0  0  0  0
  -26.5038   22.4227  -28.2688 C   0  0  0  0  0  0  0  0  0  0  0  0
  -27.0112   21.2189  -28.4072 O   0  0  0  0  0  0  0  0  0  0  0  0
  -25.5107   20.4038  -26.4638 N   0  0  0  0  0  0  0  0  0  0  0  0
  -24.9009   19.5070  -25.7390 C   0  0  0  0  0  0  0  0  0  0  0  0
  -25.3669   18.2845  -25.2257 C   0  0  0  0  0  0  0  0  0  0  0  0
  -24.4275   15.8349  -22.6283 C   0  0  0  0  0  0  0  0  0  0  0  0
  -23.9857   14.3981  -22.6477 C   0  0  0  0  0  0  0  0  0  0  0  0
  1  2  1  0
  2  3  1  0
  3  4  1  0
  4  5  1  0
  5  6  1  0
  6  7  2  0
  7  8  1  0
  8  9  2  0
  9 10  1  0
 10 11  2  0
 11 12  1  0
 12 13  2  0
 13 14  1  0
 13 15  1  0
 15 16  2  0
 16 17  1  0
 16 18  1  0
 18 19  2  0
 19 20  1  0
 20 21  2  0
 21 22  1  0
 22 23  1  0
 23 24  2  0
 11 25  1  0
 25 26  1  0
 26 27  2  0
  5 28  1  0
 28 29  1  0
 29  2  1  0
 27  6  1  0
 26  9  1  0
 23 12  1  0
 21 15  1  0
M  END
$$$$
