
     RDKit          3D

 28 29  0  0  0  0  0  0  0  0999 V2000
  -28.5532    7.3218  -25.7283 C   0  0  0  0  0  0  0  0  0  0  0  0
  -28.1758    8.0298  -24.5276 N   0  0  0  0  0  0  0  0  0  0  0  0
  -28.9358    9.2142  -24.2978 C   0  0  0  0  0  0  0  0  0  0  0  0
  -28.3556   10.4820  -24.8595 C   0  0  0  0  0  0  0  0  0  0  0  0
  -26.9524   10.5892  -24.7789 N   0  0  0  0  0  0  0  0  0  0  0  0
  -26.4365   11.0089  -23.4705 C   0  0  0  0  0  0  0  0  0  0  0  0
  -26.7453   12.3887  -23.1664 C   0  0  0  0  0  0  0  0  0  0  0  0
  -27.4338   13.0473  -24.0824 O   0  0  0  0  0  0  0  0  0  0  0  0
  -26.4377   13.2049  -22.0682 N   0  0  0  0  0  0  0  0  0  0  0  0
  -25.9114   12.5771  -20.9095 C   0  0  0  0  0  0  0  0  0  0  0  0
  -26.5955   11.4013  -20.6066 C   0  0  0  0  0  0  0  0  0  0  0  0
  -26.1678   10.6720  -19.5408 C   0  0  0  0  0  0  0  0  0  0  0  0
  -25.0826   11.1240  -18.8037 C   0  0  0  0  0  0  0  0  0  0  0  0
  -24.4173   12.2924  -19.1112 C   0  0  0  0  0  0  0  0  0  0  0  0
  -24.8359   13.0418  -20.1855 C   0  0  0  0  0  0  0  0  0  0  0  0
  -24.0908   14.3070  -20.3384 C   0  0  0  0  0  0  0  0  0  0  0  0
  -22.9368   14.3010  -19.8925 O   0  0  0  0  0  0  0  0  0  0  0  0
  -24.5892   15.5121  -20.9470 N   0  0  0  0  0  0  0  0  0  0  0  0
  -25.7687   15.6628  -21.7540 C   0  0  0  0  0  0  0  0  0  0  0  0
  -26.0448   16.9931  -22.0402 C   0  0  0  0  0  0  0  0  0  0  0  0
  -27.1329   17.3017  -22.8221 C   0  0  0  0  0  0  0  0  0  0  0  0
  -27.9137   16.2519  -23.2938 C   0  0  0  0  0  0  0  0  0  0  0  0
  -27.6191   14.9635  -22.9971 N   0  0  0  0  0  0  0  0  0  0  0  0
  -26.5663   14.6491  -22.2389 C   0  0  0  0  0  0  0  0  0  0  0  0
  -26.2532    9.4075  -25.1631 C   0  0  0  0  0  0  0  0  0  0  0  0
  -26.7531    8.2045  -24.4037 C   0  0  0  0  0  0  0  0  0  0  0  0
  -26.9205   11.2951  -23.1953 Cl  0  0  0  0  0  0  0  0  0  0  0  0
  -26.9208   11.2945  -23.1958 Cl  0  0  0  0  0  0  0  0  0  0  0  0
  1  2  1  0
  2  3  1  0
  3  4  1  0
  4  5  1  0
  5  6  1  0
  6  7  1  0
  7  8  2  0
  7  9  1  0
  9 10  1  0
 10 11  2  0
 11 12  1  0
 12 13  2  0
 13 14  1  0
 14 15  2  0
 15 16  1  0
 16 17  2  0
 16 18  1  0
 18 19  1  0
 19 20  2  0
 20 21  1  0
 21 22  2  0
 22 23  1  0
 23 24  2  0
  5 25  1  0
 25 26  1  0
 26  2  1  0
 24  9  1  0
 15 10  1  0
 24 19  1  0
M  END
$$$$
