
     RDKit          3D

 26 27  0  0  0  0  0  0  0  0999 V2000
  -22.2111   19.2638  -36.0091 C   0  0  0  0  0  0  0  0  0  0  0  0
  -23.1735   18.9448  -34.8573 C   0  0  0  0  0  0  0  0  0  0  0  0
  -24.4230   19.7673  -34.9680 C   0  0  0  0  0  0  0  0  0  0  0  0
  -23.5613   17.4866  -35.0162 C   0  0  0  0  0  0  0  0  0  0  0  0
  -22.4703   19.1986  -33.6696 O   0  0  0  0  0  0  0  0  0  0  0  0
  -21.4089   18.4693  -33.2065 C   0  0  0  0  0  0  0  0  0  0  0  0
  -20.6259   17.9647  -34.0512 O   0  0  0  0  0  0  0  0  0  0  0  0
  -21.1432   18.2491  -31.7441 C   0  0  0  0  0  0  0  0  0  0  0  0
  -19.7862   18.1203  -31.4270 N   0  0  0  0  0  0  0  0  0  0  0  0
  -18.9740   17.2263  -32.1478 C   0  0  0  0  0  0  0  0  0  0  0  0
  -18.3363   16.1824  -31.3321 C   0  0  0  0  0  0  0  0  0  0  0  0
  -16.9793   16.0252  -31.2515 C   0  0  0  0  0  0  0  0  0  0  0  0
  -16.3967   15.0347  -30.4728 C   0  0  0  0  0  0  0  0  0  0  0  0
  -17.1794   14.1697  -29.7487 C   0  0  0  0  0  0  0  0  0  0  0  0
  -16.4885   12.9117  -28.7561 Cl  0  0  0  0  0  0  0  0  0  0  0  0
  -18.5637   14.3202  -29.8230 C   0  0  0  0  0  0  0  0  0  0  0  0
  -19.1032   15.3053  -30.5989 C   0  0  0  0  0  0  0  0  0  0  0  0
  -19.2305   18.8843  -30.3853 C   0  0  0  0  0  0  0  0  0  0  0  0
  -20.2398   19.8906  -29.9284 C   0  0  0  0  0  0  0  0  0  0  0  0
  -20.1545   21.2357  -29.7815 C   0  0  0  0  0  0  0  0  0  0  0  0
  -21.2569   21.8800  -29.3448 C   0  0  0  0  0  0  0  0  0  0  0  0
  -22.3693   21.2093  -29.0753 C   0  0  0  0  0  0  0  0  0  0  0  0
  -23.6492   21.5964  -28.6147 N   0  0  0  0  0  4  0  0  0  0  0  0
  -24.6017   20.8454  -28.7801 O   0  0  0  0  0  0  0  0  0  0  0  0
  -23.8105   22.7919  -27.9966 O   0  0  0  0  0  1  0  0  0  0  0  0
  -21.8892   19.5213  -29.4478 S   0  0  0  0  0  0  0  0  0  0  0  0
  1  2  1  0
  2  3  1  0
  2  4  1  0
  2  5  1  0
  5  6  1  0
  6  7  2  0
  6  8  1  0
  8  9  1  0
  9 10  1  0
 10 11  1  0
 11 12  2  0
 12 13  1  0
 13 14  2  0
 14 15  1  0
 14 16  1  0
 16 17  2  0
  9 18  1  0
 18 19  1  0
 19 20  2  0
 20 21  1  0
 21 22  2  0
 22 23  1  0
 23 24  2  0
 23 25  1  0
 22 26  1  0
 17 11  1  0
 26 19  1  0
M  CHG  2  23   1  25  -1
M  END
$$$$
