
     RDKit          3D

 42 45  0  0  0  0  0  0  0  0999 V2000
  -19.2093   21.4453  -31.7102 C   0  0  0  0  0  0  0  0  0  0  0  0
  -18.7213   20.1641  -32.1889 N   0  0  0  0  0  0  0  0  0  0  0  0
  -19.5364   19.7781  -33.3007 C   0  0  0  0  0  0  0  0  0  0  0  0
  -20.9872   19.8537  -33.1309 C   0  0  0  0  0  0  0  0  0  0  0  0
  -21.4544   19.3712  -32.0100 O   0  0  0  0  0  0  0  0  0  0  0  0
  -21.9658   20.3650  -33.9846 N   0  0  0  0  0  0  0  0  0  0  0  0
  -23.3435   20.0061  -34.1226 C   0  0  0  0  0  0  0  0  0  0  0  0
  -23.6325   19.2629  -35.3769 C   0  0  0  0  0  0  0  0  0  0  0  0
  -24.1847   19.8972  -36.4681 C   0  0  0  0  0  0  0  0  0  0  0  0
  -24.4709   19.2466  -37.6466 C   0  0  0  0  0  0  0  0  0  0  0  0
  -24.2015   17.9000  -37.7635 C   0  0  0  0  0  0  0  0  0  0  0  0
  -24.4867   17.1327  -39.0128 C   0  0  0  0  0  0  0  0  0  0  0  0
  -25.7236   16.2898  -38.8796 C   0  0  0  0  0  0  0  0  0  0  0  0
  -25.9838   15.6329  -40.2183 C   0  0  0  0  0  0  0  0  0  0  0  0
  -26.2291   16.6241  -41.3148 C   0  0  0  0  0  0  0  0  0  0  0  0
  -25.9989   18.0355  -40.7988 C   0  0  0  0  0  0  0  0  0  0  0  0
  -24.6064   18.0604  -40.2016 C   0  0  0  0  0  0  0  0  0  0  0  0
  -23.6494   17.2446  -36.6856 C   0  0  0  0  0  0  0  0  0  0  0  0
  -23.3631   17.9240  -35.4886 C   0  0  0  0  0  0  0  0  0  0  0  0
  -21.5332   21.3998  -34.9247 C   0  0  0  0  0  0  0  0  0  0  0  0
  -21.6014   22.7164  -34.5344 C   0  0  0  0  0  0  0  0  0  0  0  0
  -21.1970   23.7086  -35.4029 C   0  0  0  0  0  0  0  0  0  0  0  0
  -20.7214   23.4302  -36.6618 C   0  0  0  0  0  0  0  0  0  0  0  0
  -20.2990   24.5012  -37.5635 C   0  0  0  0  0  0  0  0  0  0  0  0
  -19.9532   24.2049  -38.7325 O   0  0  0  0  0  0  0  0  0  0  0  0
  -20.2733   25.8089  -37.1620 O   0  0  0  0  0  0  0  0  0  0  0  0
  -20.6637   22.1026  -37.0270 C   0  0  0  0  0  0  0  0  0  0  0  0
  -21.0640   21.1029  -36.1703 C   0  0  0  0  0  0  0  0  0  0  0  0
  -18.9039   18.9349  -30.9821 S   0  0  0  0  0  6  0  0  0  0  0  0
  -20.3455   18.5137  -31.0031 O   0  0  0  0  0  0  0  0  0  0  0  0
  -18.6702   19.5664  -29.6219 O   0  0  0  0  0  0  0  0  0  0  0  0
  -17.8534   17.5834  -31.2478 C   0  0  0  0  0  0  0  0  0  0  0  0
  -18.3039   16.4302  -31.8548 C   0  0  0  0  0  0  0  0  0  0  0  0
  -19.5910   16.3432  -32.2549 F   0  0  0  0  0  0  0  0  0  0  0  0
  -17.4936   15.3406  -32.0787 C   0  0  0  0  0  0  0  0  0  0  0  0
  -17.9728   14.2249  -32.6782 F   0  0  0  0  0  0  0  0  0  0  0  0
  -16.1709   15.3617  -31.6957 C   0  0  0  0  0  0  0  0  0  0  0  0
  -15.3512   14.2792  -31.9139 F   0  0  0  0  0  0  0  0  0  0  0  0
  -15.6959   16.5016  -31.0874 C   0  0  0  0  0  0  0  0  0  0  0  0
  -14.3803   16.4991  -30.7161 F   0  0  0  0  0  0  0  0  0  0  0  0
  -16.5148   17.5920  -30.8656 C   0  0  0  0  0  0  0  0  0  0  0  0
  -16.0367   18.6935  -30.2724 F   0  0  0  0  0  0  0  0  0  0  0  0
  1  2  1  0
  2  3  1  0
  3  4  1  0
  4  5  2  0
  4  6  1  0
  6  7  1  0
  7  8  1  0
  8  9  2  0
  9 10  1  0
 10 11  2  0
 11 12  1  0
 12 13  1  0
 13 14  1  0
 14 15  1  0
 15 16  1  0
 16 17  1  0
 11 18  1  0
 18 19  2  0
  6 20  1  0
 20 21  2  0
 21 22  1  0
 22 23  2  0
 23 24  1  0
 24 25  2  0
 24 26  1  0
 23 27  1  0
 27 28  2  0
  2 29  1  0
 29 30  2  0
 29 31  2  0
 29 32  1  0
 32 33  2  0
 33 34  1  0
 33 35  1  0
 35 36  1  0
 35 37  2  0
 37 38  1  0
 37 39  1  0
 39 40  1  0
 39 41  2  0
 41 42  1  0
 19  8  1  0
 28 20  1  0
 41 32  1  0
 17 12  1  0
M  END
$$$$
