
     RDKit          3D

 15 16  0  0  0  0  0  0  0  0999 V2000
  -19.9747   44.6594  -17.3816 N   0  0  0  0  0  0  0  0  0  0  0  0
  -19.7084   43.7182  -18.0423 C   0  0  0  0  0  0  0  0  0  0  0  0
  -19.3604   42.5785  -18.8417 C   0  0  0  0  0  0  0  0  0  0  0  0
  -19.5351   41.2835  -18.3679 C   0  0  0  0  0  0  0  0  0  0  0  0
  -19.2018   40.1821  -19.1254 C   0  0  0  0  0  0  0  0  0  0  0  0
  -18.6731   40.3213  -20.4035 C   0  0  0  0  0  0  0  0  0  0  0  0
  -18.2843   38.8777  -21.2646 S   0  0  0  0  0  6  0  0  0  0  0  0
  -18.3053   37.7008  -20.3086 O   0  0  0  0  0  0  0  0  0  0  0  0
  -16.8811   38.9512  -21.8533 O   0  0  0  0  0  0  0  0  0  0  0  0
  -19.3468   38.5256  -22.5694 N   0  0  0  0  0  0  0  0  0  0  0  0
  -18.8436   37.3859  -23.2559 C   0  0  0  0  0  0  0  0  0  0  0  0
  -19.9874   36.4725  -23.7776 C   0  0  0  0  0  0  0  0  0  0  0  0
  -19.0535   37.1330  -24.6902 C   0  0  0  0  0  0  0  0  0  0  0  0
  -18.5007   41.6034  -20.8718 C   0  0  0  0  0  0  0  0  0  0  0  0
  -18.8346   42.7052  -20.1136 C   0  0  0  0  0  0  0  0  0  0  0  0
  1  2  3  0
  2  3  1  0
  3  4  2  0
  4  5  1  0
  5  6  2  0
  6  7  1  0
  7  8  2  0
  7  9  2  0
  7 10  1  0
 10 11  1  0
 11 12  1  0
 12 13  1  0
  6 14  1  0
 14 15  2  0
 15  3  1  0
 13 11  1  0
M  END
$$$$
