
     RDKit          3D

 24 26  0  0  0  0  0  0  0  0999 V2000
  -18.5921   16.4312  -31.5691 O   0  0  0  0  0  0  0  0  0  0  0  0
  -17.3682   16.3295  -31.2423 C   0  0  0  0  0  0  0  0  0  0  0  0
  -16.4234   16.9992  -32.0346 N   0  0  0  0  0  0  0  0  0  0  0  0
  -16.3841   16.9363  -33.4601 C   0  0  0  0  0  0  0  0  0  0  0  0
  -17.6147   16.2868  -34.0836 C   0  0  0  0  0  0  0  0  0  0  0  0
  -18.3626   17.3557  -34.8397 C   0  0  0  0  0  0  0  0  0  0  0  0
  -19.6988   16.9372  -35.2725 C   0  0  0  0  0  0  0  0  0  0  0  0
  -20.6755   17.8873  -35.5961 C   0  0  0  0  0  0  0  0  0  0  0  0
  -21.8918   17.4101  -35.9867 C   0  0  0  0  0  0  0  0  0  0  0  0
  -22.1658   16.0652  -36.0654 C   0  0  0  0  0  0  0  0  0  0  0  0
  -21.1987   15.1213  -35.7449 C   0  0  0  0  0  0  0  0  0  0  0  0
  -19.9626   15.5843  -35.3478 C   0  0  0  0  0  0  0  0  0  0  0  0
  -17.5708   17.8719  -35.9870 C   0  0  0  0  0  0  0  0  0  0  0  0
  -17.1910   16.9886  -37.0048 C   0  0  0  0  0  0  0  0  0  0  0  0
  -16.4561   17.4553  -38.0714 C   0  0  0  0  0  0  0  0  0  0  0  0
  -16.0734   18.7722  -38.1810 C   0  0  0  0  0  0  0  0  0  0  0  0
  -16.4626   19.6169  -37.1629 C   0  0  0  0  0  0  0  0  0  0  0  0
  -17.1984   19.1854  -36.0801 C   0  0  0  0  0  0  0  0  0  0  0  0
  -17.0260   15.5149  -30.0535 C   0  0  0  0  0  0  0  0  0  0  0  0
  -17.9572   15.2793  -29.0742 C   0  0  0  0  0  0  0  0  0  0  0  0
  -17.6517   14.5299  -27.9748 C   0  0  0  0  0  0  0  0  0  0  0  0
  -16.3931   14.0074  -27.8530 C   0  0  0  0  0  0  0  0  0  0  0  0
  -15.4930   14.2486  -28.8228 N   0  0  0  0  0  0  0  0  0  0  0  0
  -15.7646   14.9811  -29.9140 C   0  0  0  0  0  0  0  0  0  0  0  0
  1  2  2  0
  2  3  1  0
  3  4  1  0
  4  5  1  0
  5  6  1  0
  6  7  1  0
  7  8  2  0
  8  9  1  0
  9 10  2  0
 10 11  1  0
 11 12  2  0
  6 13  1  0
 13 14  2  0
 14 15  1  0
 15 16  2  0
 16 17  1  0
 17 18  2  0
  2 19  1  0
 19 20  2  0
 20 21  1  0
 21 22  2  0
 22 23  1  0
 23 24  2  0
 12  7  1  0
 18 13  1  0
 24 19  1  0
M  END
$$$$
