
     RDKit          3D

 17 19  0  0  0  0  0  0  0  0999 V2000
  -17.6231   37.4794  -21.1619 O   0  0  0  0  0  0  0  0  0  0  0  0
  -18.5971   37.6901  -21.9091 C   0  0  0  0  0  0  0  0  0  0  0  0
  -18.7736   38.9973  -22.5223 C   0  0  0  0  0  0  0  0  0  0  0  0
  -17.8245   39.9654  -22.2360 C   0  0  0  0  0  0  0  0  0  0  0  0
  -16.7466   39.7154  -21.4028 O   0  0  0  0  0  0  0  0  0  0  0  0
  -17.9798   41.2055  -22.8095 C   0  0  0  0  0  0  0  0  0  0  0  0
  -19.0471   41.4639  -23.6386 C   0  0  0  0  0  0  0  0  0  0  0  0
  -19.9636   40.4906  -23.9006 C   0  0  0  0  0  0  0  0  0  0  0  0
  -19.8467   39.2271  -23.3447 C   0  0  0  0  0  0  0  0  0  0  0  0
  -20.8465   38.1740  -23.6338 C   0  0  0  0  0  0  0  0  0  0  0  0
  -20.5990   36.8912  -22.9811 C   0  0  0  0  0  0  0  0  0  0  0  0
  -21.4884   35.8278  -23.1905 C   0  0  0  0  0  0  0  0  0  0  0  0
  -21.2960   34.6154  -22.6021 C   0  0  0  0  0  0  0  0  0  0  0  0
  -20.2235   34.3658  -21.7727 C   0  0  0  0  0  0  0  0  0  0  0  0
  -19.3289   35.4003  -21.5488 C   0  0  0  0  0  0  0  0  0  0  0  0
  -18.2560   35.1550  -20.7207 O   0  0  0  0  0  0  0  0  0  0  0  0
  -19.5476   36.6156  -22.1563 C   0  0  0  0  0  0  0  0  0  0  0  0
  1  2  2  0
  2  3  1  0
  3  4  2  0
  4  5  1  0
  4  6  1  0
  6  7  2  0
  7  8  1  0
  8  9  2  0
  9 10  1  0
 10 11  1  0
 11 12  2  0
 12 13  1  0
 13 14  2  0
 14 15  1  0
 15 16  1  0
 15 17  2  0
 17  2  1  0
  9  3  1  0
 17 11  1  0
M  END
$$$$
