
     RDKit          3D

 35 38  0  0  0  0  0  0  0  0999 V2000
  -17.0385   40.8637  -25.5502 C   0  0  0  0  0  0  0  0  0  0  0  0
  -18.3361   41.3654  -25.7818 N   0  0  0  0  0  0  0  0  0  0  0  0
  -19.0583   42.1309  -24.8573 C   0  0  0  0  0  0  0  0  0  0  0  0
  -19.2955   43.4777  -25.2991 C   0  0  0  0  0  0  0  0  0  0  0  0
  -19.8205   44.3727  -24.4073 C   0  0  0  0  0  0  0  0  0  0  0  0
  -20.0918   43.9760  -23.1551 C   0  0  0  0  0  0  0  0  0  0  0  0
  -19.8701   42.6839  -22.7178 C   0  0  0  0  0  0  0  0  0  0  0  0
  -19.3454   41.7502  -23.5983 C   0  0  0  0  0  0  0  0  0  0  0  0
  -19.1981   40.3060  -23.1456 C   0  0  0  0  0  0  0  0  0  0  0  0
  -19.0524   40.1150  -21.7907 N   0  0  0  0  0  0  0  0  0  0  0  0
  -18.9166   39.9215  -20.4246 C   0  0  0  0  0  0  0  0  0  0  0  0
  -19.2607   40.8580  -19.4646 N   0  0  0  0  0  0  0  0  0  0  0  0
  -19.2045   40.6425  -18.1630 C   0  0  0  0  0  0  0  0  0  0  0  0
  -19.5506   41.6388  -17.1773 N   0  0  0  0  0  0  0  0  0  0  0  0
  -20.4174   42.6820  -17.5909 C   0  0  0  0  0  0  0  0  0  0  0  0
  -21.4515   42.9861  -16.7239 C   0  0  0  0  0  0  0  0  0  0  0  0
  -22.1918   44.0853  -17.0403 C   0  0  0  0  0  0  0  0  0  0  0  0
  -21.9633   44.8956  -18.1568 C   0  0  0  0  0  0  0  0  0  0  0  0
  -20.9338   44.5542  -18.9801 C   0  0  0  0  0  0  0  0  0  0  0  0
  -20.1783   43.4536  -18.6927 C   0  0  0  0  0  0  0  0  0  0  0  0
  -20.8551   45.5081  -20.1308 C   0  0  0  0  0  0  0  0  0  0  0  0
  -21.8972   46.4884  -19.8185 C   0  0  0  0  0  0  0  0  0  0  0  0
  -22.1938   47.5484  -20.4387 O   0  0  0  0  0  0  0  0  0  0  0  0
  -22.5895   46.0897  -18.6442 N   0  0  0  0  0  0  0  0  0  0  0  0
  -18.7947   39.4484  -17.7390 N   0  0  0  0  0  0  0  0  0  0  0  0
  -18.4331   38.4648  -18.5260 C   0  0  0  0  0  0  0  0  0  0  0  0
  -18.5022   38.7182  -19.9105 C   0  0  0  0  0  0  0  0  0  0  0  0
  -18.0924   37.6304  -20.8363 C   0  0  0  0  0  0  0  0  0  0  0  0
  -19.2300   37.3886  -21.6734 F   0  0  0  0  0  0  0  0  0  0  0  0
  -17.8947   36.4408  -20.2004 F   0  0  0  0  0  0  0  0  0  0  0  0
  -17.1314   37.9872  -21.6967 F   0  0  0  0  0  0  0  0  0  0  0  0
  -19.1172   41.0143  -27.2781 S   0  0  0  0  0  6  0  0  0  0  0  0
  -20.5650   40.0114  -27.0687 C   0  0  0  0  0  0  0  0  0  0  0  0
  -18.1448   40.3341  -28.2800 O   0  0  0  0  0  0  0  0  0  0  0  0
  -19.4967   42.2989  -27.9444 O   0  0  0  0  0  0  0  0  0  0  0  0
  1  2  1  0
  2  3  1  0
  3  4  2  0
  4  5  1  0
  5  6  2  0
  6  7  1  0
  7  8  2  0
  8  9  1  0
  9 10  1  0
 10 11  1  0
 11 12  2  0
 12 13  1  0
 13 14  1  0
 14 15  1  0
 15 16  2  0
 16 17  1  0
 17 18  2  0
 18 19  1  0
 19 20  2  0
 19 21  1  0
 21 22  1  0
 22 23  2  0
 22 24  1  0
 13 25  2  0
 25 26  1  0
 26 27  2  0
 27 28  1  0
 28 29  1  0
 28 30  1  0
 28 31  1  0
  2 32  1  0
 32 33  1  0
 32 34  2  0
 32 35  2  0
  8  3  1  0
 27 11  1  0
 20 15  1  0
 24 18  1  0
M  END
$$$$
