
     RDKit          3D

 29 32  0  0  0  0  0  0  0  0999 V2000
  -19.6845   42.4590  -20.3547 C   0  0  0  0  0  0  0  0  0  0  0  0
  -18.7795   42.0037  -21.4340 C   0  0  2  0  0  0  0  0  0  0  0  0
  -18.5520   40.5189  -21.2106 C   0  0  0  0  0  0  0  0  0  0  0  0
  -19.4033   39.6438  -22.0616 C   0  0  0  0  0  0  0  0  0  0  0  0
  -19.1044   38.1819  -21.9578 C   0  0  0  0  0  0  0  0  0  0  0  0
  -20.0783   37.4260  -22.8565 C   0  0  0  0  0  0  0  0  0  0  0  0
  -21.4893   37.5478  -22.3522 C   0  0  0  0  0  0  0  0  0  0  0  0
  -19.6689   35.9600  -22.8570 C   0  0  0  0  0  0  0  0  0  0  0  0
  -20.0319   37.8786  -24.1591 O   0  0  0  0  0  0  0  0  0  0  0  0
  -17.4567   42.6441  -21.5331 C   0  0  1  0  0  0  0  0  0  0  0  0
  -17.6379   43.9111  -22.3864 C   0  0  0  0  0  0  0  0  0  0  0  0
  -16.8687   45.0134  -21.6851 C   0  0  0  0  0  0  0  0  0  0  0  0
  -15.9342   44.2483  -20.8395 C   0  0  1  0  0  0  0  0  0  0  0  0
  -15.2235   45.0035  -19.7596 C   0  0  2  0  0  0  0  0  0  0  0  0
  -14.1072   45.8390  -20.3452 C   0  0  0  0  0  0  0  0  0  0  0  0
  -12.9998   46.1073  -19.3952 C   0  0  0  0  0  0  0  0  0  0  0  0
  -12.9817   45.7235  -18.1429 C   0  0  0  0  0  0  0  0  0  0  0  0
  -11.8342   46.0411  -17.2864 C   0  0  0  0  0  0  0  0  0  0  0  0
  -12.0774   45.9571  -15.8236 C   0  0  1  0  0  0  0  0  0  0  0  0
  -12.4064   47.2057  -15.2631 O   0  0  0  0  0  0  0  0  0  0  0  0
  -13.0303   44.9255  -15.3518 C   0  0  0  0  0  0  0  0  0  0  0  0
  -13.7458   44.1408  -16.3940 C   0  0  0  0  0  0  0  0  0  0  0  0
  -14.1268   44.9626  -17.6010 C   0  0  1  0  0  0  0  0  0  0  0  0
  -15.1786   45.9541  -17.1472 C   0  0  0  0  0  0  0  0  0  0  0  0
  -14.6046   44.1031  -18.7489 C   0  0  1  0  0  0  0  0  0  0  0  0
  -15.4654   42.9625  -18.3070 C   0  0  0  0  0  0  0  0  0  0  0  0
  -15.9056   42.2350  -19.5870 C   0  0  0  0  0  0  0  0  0  0  0  0
  -16.8430   43.1648  -20.2769 C   0  0  2  0  0  0  0  0  0  0  0  0
  -17.8676   43.7475  -19.3435 C   0  0  0  0  0  0  0  0  0  0  0  0
  2  1  1  1
  2  3  1  0
  3  4  1  0
  4  5  1  0
  5  6  1  0
  6  7  1  0
  6  8  1  0
  6  9  1  0
  2 10  1  0
 10 11  1  6
 11 12  1  0
 13 12  1  1
 13 14  1  0
 14 15  1  6
 15 16  1  0
 16 17  2  0
 17 18  1  0
 18 19  1  0
 19 20  1  6
 19 21  1  0
 21 22  1  0
 22 23  1  0
 23 24  1  1
 23 25  1  0
 25 26  1  1
 26 27  1  0
 27 28  1  0
 28 29  1  1
 28 10  1  0
 28 13  1  0
 25 14  1  0
 23 17  1  0
M  END
$$$$
