
     RDKit          3D

 30 34  0  0  0  0  0  0  0  0999 V2000
  -16.0934   42.6679  -22.0935 C   0  0  0  0  0  0  0  0  0  0  0  0
  -16.9560   41.8538  -21.5270 C   0  0  0  0  0  0  0  0  0  0  0  0
  -18.2894   41.6659  -22.1283 C   0  0  0  0  0  0  0  0  0  0  0  0
  -19.0824   40.8866  -21.1958 N   0  0  0  0  0  0  0  0  0  0  0  0
  -19.3111   39.5524  -21.1915 C   0  0  0  0  0  0  0  0  0  0  0  0
  -18.8562   38.5815  -22.0648 C   0  0  0  0  0  0  0  0  0  0  0  0
  -19.2317   37.2743  -21.8470 C   0  0  0  0  0  0  0  0  0  0  0  0
  -20.0401   36.8928  -20.7978 C   0  0  0  0  0  0  0  0  0  0  0  0
  -20.4974   37.8544  -19.9234 C   0  0  0  0  0  0  0  0  0  0  0  0
  -20.1208   39.1857  -20.1369 C   0  0  0  0  0  0  0  0  0  0  0  0
  -20.3930   40.3582  -19.4732 C   0  0  0  0  0  0  0  0  0  0  0  0
  -21.1253   40.5982  -18.3832 N   0  0  0  0  0  0  0  0  0  0  0  0
  -21.2383   41.8389  -17.9278 N   0  0  0  0  0  0  0  0  0  0  0  0
  -20.6209   42.8345  -18.5611 C   0  0  0  0  0  0  0  0  0  0  0  0
  -20.7768   44.5055  -17.9426 S   0  0  0  0  0  0  0  0  0  0  0  0
  -20.1812   45.7133  -19.1893 C   0  0  0  0  0  0  0  0  0  0  0  0
  -18.8074   45.1895  -19.6319 C   0  0  0  0  0  0  0  0  0  0  0  0
  -18.0255   46.4197  -20.0464 C   0  0  0  0  0  0  0  0  0  0  0  0
  -16.9796   46.1467  -20.9709 N   0  0  0  0  0  0  0  0  0  0  0  0
  -17.1125   46.0338  -22.3006 C   0  0  0  0  0  0  0  0  0  0  0  0
  -18.1612   46.1449  -22.9691 O   0  0  0  0  0  0  0  0  0  0  0  0
  -15.9082   45.7731  -22.8403 N   0  0  0  0  0  0  0  0  0  0  0  0
  -14.9839   45.7132  -21.8780 C   0  0  0  0  0  0  0  0  0  0  0  0
  -13.6253   45.4852  -21.8371 C   0  0  0  0  0  0  0  0  0  0  0  0
  -12.9475   45.4920  -20.6353 C   0  0  0  0  0  0  0  0  0  0  0  0
  -13.6220   45.7275  -19.4560 C   0  0  0  0  0  0  0  0  0  0  0  0
  -14.9800   45.9538  -19.5121 C   0  0  0  0  0  0  0  0  0  0  0  0
  -15.6825   45.9535  -20.6917 C   0  0  0  0  0  0  0  0  0  0  0  0
  -19.8735   42.6430  -19.6609 N   0  0  0  0  0  0  0  0  0  0  0  0
  -19.7589   41.3910  -20.1212 C   0  0  0  0  0  0  0  0  0  0  0  0
  1  2  2  0
  2  3  1  0
  3  4  1  0
  4  5  1  0
  5  6  2  0
  6  7  1  0
  7  8  2  0
  8  9  1  0
  9 10  2  0
 10 11  1  0
 11 12  2  0
 12 13  1  0
 13 14  2  0
 14 15  1  0
 15 16  1  0
 16 17  1  0
 17 18  1  0
 18 19  1  0
 19 20  1  0
 20 21  2  0
 20 22  1  0
 22 23  1  0
 23 24  2  0
 24 25  1  0
 25 26  2  0
 26 27  1  0
 27 28  2  0
 14 29  1  0
 29 30  2  0
 30  4  1  0
 10  5  1  0
 30 11  1  0
 28 19  1  0
 28 23  1  0
M  END
$$$$
