
     RDKit          3D

 32 35  0  0  0  0  0  0  0  0999 V2000
  -24.0671   24.5085  -37.5762 C   0  0  0  0  0  0  0  0  0  0  0  0
  -22.7682   23.9932  -38.1569 C   0  0  0  0  0  0  0  0  0  0  0  0
  -23.0490   23.0582  -39.2105 O   0  0  0  0  0  0  0  0  0  0  0  0
  -22.0008   22.2862  -39.6926 C   0  0  0  0  0  0  0  0  0  0  0  0
  -20.7862   22.8252  -40.0472 C   0  0  0  0  0  0  0  0  0  0  0  0
  -19.7689   22.0360  -40.5206 C   0  0  0  0  0  0  0  0  0  0  0  0
  -19.8969   20.6438  -40.6731 C   0  0  0  0  0  0  0  0  0  0  0  0
  -18.8473   19.8686  -41.1541 N   0  0  0  0  0  0  0  0  0  0  0  0
  -18.1932   18.7551  -40.6331 C   0  0  0  0  0  0  0  0  0  0  0  0
  -18.9423   17.4431  -40.0260 S   0  0  0  0  0  0  0  0  0  0  0  0
  -16.7567   18.7081  -40.6056 N   0  0  0  0  0  0  0  0  0  0  0  0
  -16.0682   19.3919  -41.6891 C   0  0  0  0  0  0  0  0  0  0  0  0
  -14.5535   19.1156  -41.5440 C   0  0  0  0  0  0  0  0  0  0  0  0
  -14.4191   17.6394  -41.3053 C   0  0  0  0  0  0  0  0  0  0  0  0
  -13.2144   16.9993  -41.8615 C   0  0  0  0  0  0  0  0  0  0  0  0
  -13.2159   15.5936  -41.5687 O   0  0  0  0  0  0  0  0  0  0  0  0
  -12.9224   17.0815  -43.2752 C   0  0  0  0  0  0  0  0  0  0  0  0
  -11.9366   17.8228  -43.8578 C   0  0  0  0  0  0  0  0  0  0  0  0
  -11.7781   17.7986  -45.2443 C   0  0  0  0  0  0  0  0  0  0  0  0
  -12.6034   17.0362  -46.0381 C   0  0  0  0  0  0  0  0  0  0  0  0
  -13.6019   16.2821  -45.4790 C   0  0  0  0  0  0  0  0  0  0  0  0
  -13.7383   16.3207  -44.1230 C   0  0  0  0  0  0  0  0  0  0  0  0
  -11.9935   17.5241  -41.1428 C   0  0  0  0  0  0  0  0  0  0  0  0
  -11.1011   16.6495  -40.5473 C   0  0  0  0  0  0  0  0  0  0  0  0
   -9.9667   17.0884  -39.8787 C   0  0  0  0  0  0  0  0  0  0  0  0
   -9.7069   18.4348  -39.7965 C   0  0  0  0  0  0  0  0  0  0  0  0
  -10.6074   19.2886  -40.3957 C   0  0  0  0  0  0  0  0  0  0  0  0
  -11.7241   18.8727  -41.0549 C   0  0  0  0  0  0  0  0  0  0  0  0
  -14.8291   17.3027  -39.9255 C   0  0  0  0  0  0  0  0  0  0  0  0
  -16.0999   18.0227  -39.5548 C   0  0  0  0  0  0  0  0  0  0  0  0
  -21.1130   20.1334  -40.3139 C   0  0  0  0  0  0  0  0  0  0  0  0
  -22.1656   20.9326  -39.8266 C   0  0  0  0  0  0  0  0  0  0  0  0
  1  2  1  0
  2  3  1  0
  3  4  1  0
  4  5  2  0
  5  6  1  0
  6  7  2  0
  7  8  1  0
  8  9  1  0
  9 10  2  0
  9 11  1  0
 11 12  1  0
 12 13  1  0
 13 14  1  0
 14 15  1  0
 15 16  1  0
 15 17  1  0
 17 18  2  0
 18 19  1  0
 19 20  2  0
 20 21  1  0
 21 22  2  0
 15 23  1  0
 23 24  2  0
 24 25  1  0
 25 26  2  0
 26 27  1  0
 27 28  2  0
 14 29  1  0
 29 30  1  0
  7 31  1  0
 31 32  2  0
 32  4  1  0
 30 11  1  0
 22 17  1  0
 28 23  1  0
M  END
$$$$
