
     RDKit          3D

 49 53  0  0  0  0  0  0  0  0999 V2000
  -15.3970   17.7228  -44.5408 C   0  0  0  0  0  0  0  0  0  0  0  0
  -16.4059   18.7579  -44.0955 C   0  0  0  0  0  0  0  0  0  0  0  0
  -16.3664   19.0185  -42.7258 O   0  0  0  0  0  0  0  0  0  0  0  0
  -17.0331   20.0352  -42.0682 C   0  0  0  0  0  0  0  0  0  0  0  0
  -17.7825   20.9193  -42.8192 C   0  0  0  0  0  0  0  0  0  0  0  0
  -18.4792   21.9676  -42.2163 C   0  0  0  0  0  0  0  0  0  0  0  0
  -19.2909   22.9183  -43.0250 C   0  0  0  0  0  0  0  0  0  0  0  0
  -19.1526   24.3408  -42.5367 C   0  0  0  0  0  0  0  0  0  0  0  0
  -18.8549   22.8750  -44.4683 C   0  0  0  0  0  0  0  0  0  0  0  0
  -20.7370   22.4677  -42.9649 C   0  0  0  0  0  0  0  0  0  0  0  0
  -18.3802   22.0723  -40.8456 C   0  0  0  0  0  0  0  0  0  0  0  0
  -17.6241   21.1767  -40.1092 C   0  0  0  0  0  0  0  0  0  0  0  0
  -16.9467   20.1556  -40.7056 C   0  0  0  0  0  0  0  0  0  0  0  0
  -16.1602   19.1536  -39.9352 C   0  0  0  0  0  0  0  0  0  0  0  0
  -15.0622   19.4233  -39.3196 N   0  0  0  0  0  0  0  0  0  0  0  0
  -14.4914   18.2870  -38.6571 C   0  0  1  0  0  0  0  0  0  0  0  0
  -12.9994   18.2964  -38.8995 C   0  0  0  0  0  0  0  0  0  0  0  0
  -14.8370   18.2910  -37.2407 C   0  0  0  0  0  0  0  0  0  0  0  0
  -15.7795   19.1893  -36.7869 C   0  0  0  0  0  0  0  0  0  0  0  0
  -16.1263   19.1559  -35.4533 C   0  0  0  0  0  0  0  0  0  0  0  0
  -15.5423   18.2425  -34.5899 C   0  0  0  0  0  0  0  0  0  0  0  0
  -15.9727   18.1856  -32.8849 Cl  0  0  0  0  0  0  0  0  0  0  0  0
  -14.5953   17.3512  -35.0828 C   0  0  0  0  0  0  0  0  0  0  0  0
  -14.2512   17.3865  -36.4131 C   0  0  0  0  0  0  0  0  0  0  0  0
  -15.1497   17.1719  -39.4727 C   0  0  1  0  0  0  0  0  0  0  0  0
  -14.4635   17.0048  -40.8130 C   0  0  0  0  0  0  0  0  0  0  0  0
  -15.1521   15.9162  -38.7581 C   0  0  0  0  0  0  0  0  0  0  0  0
  -16.3601   15.5864  -38.1239 C   0  0  0  0  0  0  0  0  0  0  0  0
  -16.5587   14.4408  -37.4204 C   0  0  0  0  0  0  0  0  0  0  0  0
  -15.5393   13.5326  -37.3040 C   0  0  0  0  0  0  0  0  0  0  0  0
  -15.7786   12.0532  -36.4024 Cl  0  0  0  0  0  0  0  0  0  0  0  0
  -14.3347   13.8364  -37.9227 C   0  0  0  0  0  0  0  0  0  0  0  0
  -14.1552   14.9976  -38.6277 C   0  0  0  0  0  0  0  0  0  0  0  0
  -16.4513   17.7872  -39.7497 N   0  0  0  0  0  0  0  0  0  0  0  0
  -17.6471   17.0736  -39.9059 C   0  0  0  0  0  0  0  0  0  0  0  0
  -17.6245   15.8100  -39.5394 O   0  0  0  0  0  0  0  0  0  0  0  0
  -18.8960   17.4811  -40.3892 N   0  0  0  0  0  0  0  0  0  0  0  0
  -19.3539   18.7959  -40.7393 C   0  0  0  0  0  0  0  0  0  0  0  0
  -20.8799   18.7885  -40.4025 C   0  0  0  0  0  0  0  0  0  0  0  0
  -21.1264   17.9753  -39.2802 N   0  0  0  0  0  0  0  0  0  0  0  0
  -21.8868   18.4465  -38.2103 C   0  0  0  0  0  0  0  0  0  0  0  0
  -23.2835   18.8886  -38.4483 C   0  0  0  0  0  0  0  0  0  0  0  0
  -24.0961   19.2101  -37.2420 C   0  0  0  0  0  0  0  0  0  0  0  0
  -25.7424   19.7742  -37.7088 S   0  0  0  0  0  6  0  0  0  0  0  0
  -26.7956   19.8258  -36.2808 C   0  0  0  0  0  0  0  0  0  0  0  0
  -25.6598   21.1500  -38.3066 O   0  0  0  0  0  0  0  0  0  0  0  0
  -26.3283   18.8169  -38.6956 O   0  0  0  0  0  0  0  0  0  0  0  0
  -20.9710   16.5780  -39.4730 C   0  0  0  0  0  0  0  0  0  0  0  0
  -19.9221   16.4297  -40.5945 C   0  0  0  0  0  0  0  0  0  0  0  0
  1  2  1  0
  2  3  1  0
  3  4  1  0
  4  5  2  0
  5  6  1  0
  6  7  1  0
  7  8  1  0
  7  9  1  0
  7 10  1  0
  6 11  2  0
 11 12  1  0
 12 13  2  0
 13 14  1  0
 14 15  2  0
 15 16  1  0
 16 17  1  1
 16 18  1  0
 18 19  2  0
 19 20  1  0
 20 21  2  0
 21 22  1  0
 21 23  1  0
 23 24  2  0
 16 25  1  0
 25 26  1  6
 25 27  1  0
 27 28  2  0
 28 29  1  0
 29 30  2  0
 30 31  1  0
 30 32  1  0
 32 33  2  0
 25 34  1  0
 34 35  1  0
 35 36  2  0
 35 37  1  0
 37 38  1  0
 38 39  1  0
 39 40  1  0
 40 41  1  0
 41 42  1  0
 42 43  1  0
 43 44  1  0
 44 45  1  0
 44 46  2  0
 44 47  2  0
 40 48  1  0
 48 49  1  0
 13  4  1  0
 34 14  1  0
 49 37  1  0
 24 18  1  0
 33 27  1  0
M  END
$$$$
