
     RDKit          3D

 28 29  0  0  0  0  0  0  0  0999 V2000
  -29.6295   13.4957  -26.2723 C   0  0  0  0  0  0  0  0  0  0  0  0
  -28.6198   14.0918  -25.4849 O   0  0  0  0  0  0  0  0  0  0  0  0
  -28.7384   15.2332  -24.7453 C   0  0  0  0  0  0  0  0  0  0  0  0
  -29.8096   15.8792  -24.8553 O   0  0  0  0  0  0  0  0  0  0  0  0
  -27.6717   15.7197  -23.8418 C   0  0  0  0  0  0  0  0  0  0  0  0
  -27.4173   16.9911  -23.7087 C   0  0  0  0  0  0  0  0  0  0  0  0
  -28.1979   17.9090  -24.4611 C   0  0  0  0  0  0  0  0  0  0  0  0
  -28.8320   18.6830  -25.0953 N   0  0  0  0  0  0  0  0  0  0  0  0
  -26.4026   17.5096  -22.8444 N   0  0  0  0  0  0  0  0  0  0  0  0
  -25.6541   16.5512  -22.1079 C   0  0  0  0  0  0  0  0  0  0  0  0
  -24.5921   17.0742  -21.2005 C   0  0  0  0  0  0  0  0  0  0  0  0
  -25.8675   15.2661  -22.2039 C   0  0  0  0  0  0  0  0  0  0  0  0
  -25.0580   14.3165  -21.4121 C   0  0  0  0  0  0  0  0  0  0  0  0
  -24.3805   14.7343  -20.4300 O   0  0  0  0  0  0  0  0  0  0  0  0
  -24.9884   12.9817  -21.6745 O   0  0  0  0  0  0  0  0  0  0  0  0
  -23.8262   12.1818  -21.6564 C   0  0  0  0  0  0  0  0  0  0  0  0
  -24.3117   10.7409  -21.4765 C   0  0  0  0  0  0  0  0  0  0  0  0
  -22.9946   12.3235  -22.8850 C   0  0  0  0  0  0  0  0  0  0  0  0
  -26.9024   14.7078  -23.0965 C   0  0  0  0  0  0  0  0  0  0  0  0
  -27.7992   13.8211  -22.2803 C   0  0  0  0  0  0  0  0  0  0  0  0
  -28.6482   14.3952  -21.3644 C   0  0  0  0  0  0  0  0  0  0  0  0
  -29.4994   13.6350  -20.5733 C   0  0  0  0  0  0  0  0  0  0  0  0
  -29.4813   12.2545  -20.7228 C   0  0  0  0  0  0  0  0  0  0  0  0
  -28.6273   11.6613  -21.6457 C   0  0  0  0  0  0  0  0  0  0  0  0
  -28.6128   10.2609  -21.7909 N   0  0  0  0  0  4  0  0  0  0  0  0
  -29.3752    9.5605  -21.1100 O   0  0  0  0  0  0  0  0  0  0  0  0
  -27.7614    9.6709  -22.6791 O   0  0  0  0  0  1  0  0  0  0  0  0
  -27.7871   12.4518  -22.4231 C   0  0  0  0  0  0  0  0  0  0  0  0
  1  2  1  0
  2  3  1  0
  3  4  2  0
  3  5  1  0
  5  6  2  0
  6  7  1  0
  7  8  3  0
  6  9  1  0
  9 10  1  0
 10 11  1  0
 10 12  2  0
 12 13  1  0
 13 14  2  0
 13 15  1  0
 15 16  1  0
 16 17  1  0
 16 18  1  0
 12 19  1  0
 19 20  1  0
 20 21  2  0
 21 22  1  0
 22 23  2  0
 23 24  1  0
 24 25  1  0
 25 26  2  0
 25 27  1  0
 24 28  2  0
 19  5  1  0
 28 20  1  0
M  CHG  2  25   1  27  -1
M  END
$$$$
