
     RDKit          3D

 24 24  0  0  0  0  0  0  0  0999 V2000
  -29.5781   16.0714  -22.7960 C   0  0  0  0  0  0  0  0  0  0  0  0
  -29.3028   14.8612  -21.9761 C   0  0  0  0  0  0  0  0  0  0  0  0
  -30.3394   14.2610  -21.2477 C   0  0  0  0  0  0  0  0  0  0  0  0
  -30.1179   13.1428  -20.4811 C   0  0  0  0  0  0  0  0  0  0  0  0
  -31.1485   12.4618  -19.6949 C   0  0  0  0  0  0  0  0  0  0  0  0
  -32.4492   12.9073  -19.6675 C   0  0  0  0  0  0  0  0  0  0  0  0
  -33.4526   12.2969  -18.9413 C   0  0  0  0  0  0  0  0  0  0  0  0
  -33.1255   11.1819  -18.2069 C   0  0  0  0  0  0  0  0  0  0  0  0
  -31.8309   10.7051  -18.2094 C   0  0  0  0  0  0  0  0  0  0  0  0
  -30.8551   11.3396  -18.9459 C   0  0  0  0  0  0  0  0  0  0  0  0
  -28.8526   12.6603  -20.4713 N   0  0  0  0  0  0  0  0  0  0  0  0
  -27.8743   13.2185  -21.1526 N   0  0  0  0  0  0  0  0  0  0  0  0
  -28.0394   14.3123  -21.9167 C   0  0  0  0  0  0  0  0  0  0  0  0
  -26.9471   14.8748  -22.6340 N   0  0  0  0  0  0  0  0  0  0  0  0
  -25.6131   14.3047  -22.5772 C   0  0  0  0  0  0  0  0  0  0  0  0
  -25.0634   14.3034  -21.1699 C   0  0  0  0  0  0  0  0  0  0  0  0
  -23.7345   13.7276  -21.2101 N   0  0  0  0  0  0  0  0  0  0  0  0
  -23.1207   13.6923  -19.9137 C   0  0  0  0  0  0  0  0  0  0  0  0
  -22.5363   12.3513  -19.5922 C   0  0  0  0  0  0  0  0  0  0  0  0
  -21.6669   12.0464  -20.6514 O   0  0  0  0  0  0  0  0  0  0  0  0
  -22.4213   11.7096  -21.7547 C   0  0  0  0  0  0  0  0  0  0  0  0
  -23.6153   12.5628  -21.9885 C   0  0  0  0  0  0  0  0  0  0  0  0
  -28.1191   13.2323  -20.6866 Cl  0  0  0  0  0  0  0  0  0  0  0  0
  -28.1177   13.2321  -20.6869 Cl  0  0  0  0  0  0  0  0  0  0  0  0
  1  2  1  0
  2  3  2  0
  3  4  1  0
  4  5  1  0
  5  6  2  0
  6  7  1  0
  7  8  2  0
  8  9  1  0
  9 10  2  0
  4 11  2  0
 11 12  1  0
 12 13  2  0
 13 14  1  0
 14 15  1  0
 15 16  1  0
 16 17  1  0
 17 18  1  0
 18 19  1  0
 19 20  1  0
 20 21  1  0
 21 22  1  0
 13  2  1  0
 22 17  1  0
 10  5  1  0
M  END
$$$$
