
     RDKit          3D

 20 22  0  0  0  0  0  0  0  0999 V2000
  -19.1101   38.5724  -20.2234 O   0  0  0  0  0  0  0  0  0  0  0  0
  -19.7390   37.9251  -21.0806 C   0  0  0  0  0  0  0  0  0  0  0  0
  -20.9494   38.2903  -21.5538 N   0  0  0  0  0  0  0  0  0  0  0  0
  -21.6087   37.5838  -22.4728 C   0  0  0  0  0  0  0  0  0  0  0  0
  -22.9344   38.0210  -22.9640 C   0  0  0  0  0  0  0  0  0  0  0  0
  -23.5388   37.3275  -23.8975 C   0  0  0  0  0  0  0  0  0  0  0  0
  -24.7199   37.8223  -24.5874 C   0  0  0  0  0  0  0  0  0  0  0  0
  -25.2294   39.0868  -24.2641 C   0  0  0  0  0  0  0  0  0  0  0  0
  -26.3350   39.5852  -24.8889 C   0  0  0  0  0  0  0  0  0  0  0  0
  -27.0101   38.8823  -25.8657 C   0  0  0  0  0  0  0  0  0  0  0  0
  -28.5562   39.5730  -26.7433 Br  0  0  0  0  0  0  0  0  0  0  0  0
  -26.4912   37.6410  -26.1675 C   0  0  0  0  0  0  0  0  0  0  0  0
  -25.3750   37.1099  -25.5531 C   0  0  0  0  0  0  0  0  0  0  0  0
  -21.0831   36.4969  -22.9452 O   0  0  0  0  0  0  0  0  0  0  0  0
  -19.9102   36.0386  -22.5628 C   0  0  0  0  0  0  0  0  0  0  0  0
  -19.4253   34.8795  -23.1129 C   0  0  0  0  0  0  0  0  0  0  0  0
  -18.1979   34.4320  -22.6893 C   0  0  0  0  0  0  0  0  0  0  0  0
  -17.4606   35.1143  -21.7403 C   0  0  0  0  0  0  0  0  0  0  0  0
  -17.9931   36.2714  -21.2209 C   0  0  0  0  0  0  0  0  0  0  0  0
  -19.2181   36.7614  -21.6120 C   0  0  0  0  0  0  0  0  0  0  0  0
  1  2  2  0
  2  3  1  0
  3  4  2  0
  4  5  1  0
  5  6  2  0
  6  7  1  0
  7  8  2  0
  8  9  1  0
  9 10  2  0
 10 11  1  0
 10 12  1  0
 12 13  2  0
  4 14  1  0
 14 15  1  0
 15 16  2  0
 16 17  1  0
 17 18  2  0
 18 19  1  0
 19 20  2  0
 20  2  1  0
 13  7  1  0
 20 15  1  0
M  END
$$$$
