
     RDKit          3D

 47 52  0  0  0  0  0  0  0  0999 V2000
  -17.6205   15.7520  -28.5411 C   0  0  0  0  0  0  0  0  0  0  0  0
  -18.3496   15.3188  -29.6771 O   0  0  0  0  0  0  0  0  0  0  0  0
  -18.7776   16.2559  -30.5943 C   0  0  0  0  0  0  0  0  0  0  0  0
  -17.9670   17.2945  -30.9742 C   0  0  0  0  0  0  0  0  0  0  0  0
  -18.4277   18.2069  -31.8902 C   0  0  0  0  0  0  0  0  0  0  0  0
  -19.6727   18.1196  -32.4427 C   0  0  0  0  0  0  0  0  0  0  0  0
  -20.4644   17.0486  -32.0286 C   0  0  0  0  0  0  0  0  0  0  0  0
  -20.0718   16.1067  -31.1237 C   0  0  0  0  0  0  0  0  0  0  0  0
  -20.8564   15.0490  -30.7136 O   0  0  0  0  0  0  0  0  0  0  0  0
  -21.4766   14.1071  -31.5105 C   0  0  0  0  0  0  0  0  0  0  0  0
  -21.2758   12.6971  -31.0005 C   0  0  0  0  0  0  0  0  0  0  0  0
  -22.9801   14.3371  -31.6239 C   0  0  0  0  0  0  0  0  0  0  0  0
  -20.1540   19.1035  -33.4057 C   0  0  2  0  0  0  0  0  0  0  0  0
  -21.2148   18.5450  -34.2939 C   0  0  0  0  0  0  0  0  0  0  0  0
  -20.8880   17.6462  -35.2873 C   0  0  0  0  0  0  0  0  0  0  0  0
  -21.8204   17.1071  -36.1473 C   0  0  0  0  0  0  0  0  0  0  0  0
  -23.1616   17.4662  -36.0337 C   0  0  0  0  0  0  0  0  0  0  0  0
  -24.3655   16.7875  -37.1204 Cl  0  0  0  0  0  0  0  0  0  0  0  0
  -23.4878   18.3596  -35.0467 C   0  0  0  0  0  0  0  0  0  0  0  0
  -22.5419   18.8882  -34.1965 C   0  0  0  0  0  0  0  0  0  0  0  0
  -19.0873   19.7345  -34.1226 N   0  0  0  0  0  0  0  0  0  0  0  0
  -19.3360   20.5950  -35.2459 C   0  0  0  0  0  0  0  0  0  0  0  0
  -19.9560   21.7938  -35.0012 C   0  0  0  0  0  0  0  0  0  0  0  0
  -20.2130   22.6540  -36.0827 C   0  0  0  0  0  0  0  0  0  0  0  0
  -19.8654   22.3334  -37.3625 C   0  0  0  0  0  0  0  0  0  0  0  0
  -20.1290   23.1737  -38.4675 N   0  0  0  0  0  0  0  0  0  0  0  0
  -20.1680   24.6213  -38.3327 C   0  0  0  0  0  0  0  0  0  0  0  0
  -20.3622   22.6402  -39.7814 C   0  0  0  0  0  0  0  0  0  0  0  0
  -19.1577   22.8642  -40.6679 C   0  0  1  0  0  0  0  0  0  0  0  0
  -19.2269   21.9230  -41.8477 C   0  0  0  0  0  0  0  0  0  0  0  0
  -19.4288   22.7020  -43.1498 C   0  0  0  0  0  0  0  0  0  0  0  0
  -18.2052   23.5898  -43.3778 C   0  0  2  0  0  0  0  0  0  0  0  0
  -17.1581   22.7624  -43.8961 N   0  0  0  0  0  0  0  0  0  0  0  0
  -16.8482   21.7409  -42.9480 C   0  0  0  0  0  0  0  0  0  0  0  0
  -16.4697   20.4068  -43.5454 C   0  0  0  0  0  0  0  0  0  0  0  0
  -15.6317   20.5609  -44.7195 N   0  0  0  0  0  0  0  0  0  0  0  0
  -14.4584   19.7561  -44.9879 C   0  0  0  0  0  0  0  0  0  0  0  0
  -16.0700   21.6037  -45.6193 C   0  0  0  0  0  0  0  0  0  0  0  0
  -15.4062   21.8998  -46.6157 O   0  0  0  0  0  0  0  0  0  0  0  0
  -17.3558   22.2306  -45.1998 C   0  0  0  0  0  0  0  0  0  0  0  0
  -17.8605   24.3147  -42.1228 C   0  0  0  0  0  0  0  0  0  0  0  0
  -19.0584   24.2690  -41.1949 C   0  0  0  0  0  0  0  0  0  0  0  0
  -19.2395   21.1178  -37.5795 C   0  0  0  0  0  0  0  0  0  0  0  0
  -18.9856   20.2712  -36.5230 C   0  0  0  0  0  0  0  0  0  0  0  0
  -17.7456   19.5573  -33.7089 C   0  0  0  0  0  0  0  0  0  0  0  0
  -16.8164   19.6019  -34.5476 O   0  0  0  0  0  0  0  0  0  0  0  0
  -17.4657   19.3160  -32.2455 C   0  0  0  0  0  0  0  0  0  0  0  0
  1  2  1  0
  2  3  1  0
  3  4  2  0
  4  5  1  0
  5  6  2  0
  6  7  1  0
  7  8  2  0
  8  9  1  0
  9 10  1  0
 10 11  1  0
 10 12  1  0
  6 13  1  0
 13 14  1  6
 14 15  2  0
 15 16  1  0
 16 17  2  0
 17 18  1  0
 17 19  1  0
 19 20  2  0
 13 21  1  0
 21 22  1  0
 22 23  2  0
 23 24  1  0
 24 25  2  0
 25 26  1  0
 26 27  1  0
 26 28  1  0
 29 28  1  1
 29 30  1  0
 30 31  1  0
 31 32  1  0
 32 33  1  1
 33 34  1  0
 34 35  1  0
 35 36  1  0
 36 37  1  0
 36 38  1  0
 38 39  2  0
 38 40  1  0
 32 41  1  0
 41 42  1  0
 25 43  1  0
 43 44  2  0
 21 45  1  0
 45 46  2  0
 45 47  1  0
  8  3  1  0
 20 14  1  0
 44 22  1  0
 47  5  1  0
 42 29  1  0
 40 33  1  0
M  END
$$$$
