
     RDKit          3D

 18 19  0  0  0  0  0  0  0  0999 V2000
  -16.8382   12.6568  -27.8996 C   0  0  0  0  0  0  0  0  0  0  0  0
  -15.6152   13.0559  -28.6325 C   0  0  0  0  0  0  0  0  0  0  0  0
  -14.4251   12.4532  -28.3165 C   0  0  0  0  0  0  0  0  0  0  0  0
  -14.4175   11.2327  -27.0538 Cl  0  0  0  0  0  0  0  0  0  0  0  0
  -13.2674   12.8065  -28.9827 C   0  0  0  0  0  0  0  0  0  0  0  0
  -13.3751   13.7684  -29.9535 C   0  0  0  0  0  0  0  0  0  0  0  0
  -14.5910   14.3823  -30.2763 C   0  0  0  0  0  0  0  0  0  0  0  0
  -15.7381   14.0461  -29.6267 C   0  0  0  0  0  0  0  0  0  0  0  0
  -16.9785   14.6715  -29.8428 N   0  0  0  0  0  0  0  0  0  0  0  0
  -17.5358   15.1991  -31.0258 C   0  0  0  0  0  0  0  0  0  0  0  0
  -16.9783   14.9252  -32.2631 C   0  0  0  0  0  0  0  0  0  0  0  0
  -17.5093   15.3393  -33.4610 C   0  0  0  0  0  0  0  0  0  0  0  0
  -18.6636   16.0714  -33.4036 C   0  0  0  0  0  0  0  0  0  0  0  0
  -19.2560   16.3733  -32.2134 C   0  0  0  0  0  0  0  0  0  0  0  0
  -18.7164   15.9500  -30.9948 C   0  0  0  0  0  0  0  0  0  0  0  0
  -19.3917   16.2621  -29.7592 C   0  0  0  0  0  0  0  0  0  0  0  0
  -18.9193   15.7191  -28.6861 O   0  0  0  0  0  0  0  0  0  0  0  0
  -20.4752   17.0610  -29.5415 O   0  0  0  0  0  0  0  0  0  0  0  0
  1  2  1  0
  2  3  2  0
  3  4  1  0
  3  5  1  0
  5  6  2  0
  6  7  1  0
  7  8  2  0
  8  9  1  0
  9 10  1  0
 10 11  2  0
 11 12  1  0
 12 13  2  0
 13 14  1  0
 14 15  2  0
 15 16  1  0
 16 17  2  0
 16 18  1  0
  8  2  1  0
 15 10  1  0
M  END
$$$$
