
     RDKit          3D

 39 42  0  0  0  0  0  0  0  0999 V2000
  -19.4034   45.3653  -22.6971 C   0  0  0  0  0  0  0  0  0  0  0  0
  -19.5234   43.9627  -22.5729 O   0  0  0  0  0  0  0  0  0  0  0  0
  -18.8164   43.3322  -21.5693 C   0  0  0  0  0  0  0  0  0  0  0  0
  -17.9985   44.0512  -20.6905 C   0  0  0  0  0  0  0  0  0  0  0  0
  -17.2923   43.4184  -19.6873 C   0  0  0  0  0  0  0  0  0  0  0  0
  -17.4368   42.0504  -19.6008 C   0  0  0  0  0  0  0  0  0  0  0  0
  -18.2255   41.2948  -20.4361 C   0  0  0  0  0  0  0  0  0  0  0  0
  -18.9172   41.9581  -21.4271 C   0  0  0  0  0  0  0  0  0  0  0  0
  -19.7557   41.1641  -22.3156 C   0  0  0  0  0  0  0  0  0  0  0  0
  -20.4017   41.7436  -23.2333 O   0  0  0  0  0  0  0  0  0  0  0  0
  -19.8725   39.7080  -22.1759 C   0  0  0  0  0  0  0  0  0  0  0  0
  -20.6771   38.9647  -23.0312 C   0  0  0  0  0  0  0  0  0  0  0  0
  -21.3661   39.6245  -24.0181 O   0  0  0  0  0  0  0  0  0  0  0  0
  -20.7949   37.6077  -22.9111 C   0  0  0  0  0  0  0  0  0  0  0  0
  -20.0830   36.9948  -21.9048 C   0  0  0  0  0  0  0  0  0  0  0  0
  -19.2776   37.6589  -21.0328 C   0  0  0  0  0  0  0  0  0  0  0  0
  -18.5631   37.0587  -20.0255 O   0  0  0  0  0  0  0  0  0  0  0  0
  -19.1858   39.0415  -21.1903 C   0  0  0  0  0  0  0  0  0  0  0  0
  -18.3434   39.8396  -20.2980 C   0  0  0  0  0  0  0  0  0  0  0  0
  -17.7142   39.2370  -19.3968 O   0  0  0  0  0  0  0  0  0  0  0  0
  -20.2300   35.5254  -21.8001 C   0  0  0  0  0  0  0  0  0  0  0  0
  -19.9945   34.9567  -23.1820 C   0  0  1  0  0  0  0  0  0  0  0  0
  -18.6545   35.2455  -23.4787 O   0  0  0  0  0  0  0  0  0  0  0  0
  -20.1366   33.4729  -23.1083 C   0  0  0  0  0  0  0  0  0  0  0  0
  -18.9669   32.5865  -23.3364 C   0  0  0  0  0  0  0  0  0  0  0  0
  -21.2364   32.9911  -22.8559 O   0  0  0  0  0  0  0  0  0  0  0  0
  -20.8372   35.5554  -24.2569 C   0  0  0  0  0  0  0  0  0  0  0  0
  -21.6243   36.7512  -23.7739 C   0  0  2  0  0  0  0  0  0  0  0  0
  -22.3173   37.3849  -24.7599 O   0  0  0  0  0  0  0  0  0  0  0  0
  -23.6954   37.3082  -24.6486 C   0  0  1  0  0  0  0  0  0  0  0  0
  -24.3974   38.6409  -24.7268 C   0  0  0  0  0  0  0  0  0  0  0  0
  -25.7011   38.5196  -25.5321 C   0  0  2  0  0  0  0  0  0  0  0  0
  -26.5383   37.5680  -24.8060 N   0  0  0  0  0  0  0  0  0  0  0  0
  -25.4396   38.0959  -26.9417 C   0  0  2  0  0  0  0  0  0  0  0  0
  -26.5308   37.3180  -27.3666 O   0  0  0  0  0  0  0  0  0  0  0  0
  -24.1611   37.2476  -26.9202 C   0  0  2  0  0  0  0  0  0  0  0  0
  -24.3215   36.2357  -28.0419 C   0  0  0  0  0  0  0  0  0  0  0  0
  -24.1481   36.5396  -25.7268 O   0  0  0  0  0  0  0  0  0  0  0  0
  -21.7610   38.0431  -23.7078 Cl  0  0  0  0  0  0  0  0  0  0  0  0
  1  2  1  0
  2  3  1  0
  3  4  2  0
  4  5  1  0
  5  6  2  0
  6  7  1  0
  7  8  2  0
  8  9  1  0
  9 10  2  0
  9 11  1  0
 11 12  2  0
 12 13  1  0
 12 14  1  0
 14 15  2  0
 15 16  1  0
 16 17  1  0
 16 18  2  0
 18 19  1  0
 19 20  2  0
 15 21  1  0
 21 22  1  0
 22 23  1  6
 22 24  1  0
 24 25  1  0
 24 26  2  0
 22 27  1  0
 27 28  1  0
 28 29  1  6
 30 29  1  6
 30 31  1  0
 31 32  1  0
 32 33  1  1
 32 34  1  0
 34 35  1  1
 34 36  1  0
 36 37  1  6
 36 38  1  0
  8  3  1  0
 18 11  1  0
 38 30  1  0
 19  7  1  0
 28 14  1  0
M  END
$$$$
