
     RDKit          3D

 25 25  0  0  0  0  0  0  0  0999 V2000
  -20.3884   21.5820  -44.3360 C   0  0  0  0  0  0  0  0  0  0  0  0
  -19.0851   21.0473  -44.4823 O   0  0  0  0  0  0  0  0  0  0  0  0
  -18.4030   20.4627  -43.4212 C   0  0  0  0  0  0  0  0  0  0  0  0
  -18.9108   20.3483  -42.1677 C   0  0  0  0  0  0  0  0  0  0  0  0
  -18.1744   19.7531  -41.1558 C   0  0  0  0  0  0  0  0  0  0  0  0
  -16.9112   19.2538  -41.3617 C   0  0  0  0  0  0  0  0  0  0  0  0
  -16.1851   18.6195  -40.2856 C   0  0  0  0  0  0  0  0  0  0  0  0
  -16.6893   17.6347  -39.5916 C   0  0  0  0  0  0  0  0  0  0  0  0
  -18.0311   17.0132  -39.7855 C   0  0  0  0  0  0  0  0  0  0  0  0
  -17.7409   15.5437  -40.0804 C   0  0  0  0  0  0  0  0  0  0  0  0
  -16.6646   14.9518  -39.2896 C   0  0  0  0  0  0  0  0  0  0  0  0
  -15.8977   15.7346  -38.3897 N   0  0  0  0  0  0  0  0  0  0  0  0
  -15.8804   17.0481  -38.4986 C   0  0  0  0  0  0  0  0  0  0  0  0
  -15.1008   17.9032  -37.6470 C   0  0  0  0  0  0  0  0  0  0  0  0
  -14.2287   17.2531  -36.7500 C   0  0  0  0  0  0  0  0  0  0  0  0
  -13.4617   17.9158  -35.8480 C   0  0  0  0  0  0  0  0  0  0  0  0
  -13.5331   19.2997  -35.7996 C   0  0  0  0  0  0  0  0  0  0  0  0
  -14.3577   19.9263  -36.6452 N   0  0  0  0  0  0  0  0  0  0  0  0
  -15.1313   19.2579  -37.5535 C   0  0  0  0  0  0  0  0  0  0  0  0
  -16.4039   19.3750  -42.6386 C   0  0  0  0  0  0  0  0  0  0  0  0
  -15.1150   18.8741  -42.8767 O   0  0  0  0  0  0  0  0  0  0  0  0
  -14.5378   18.9731  -44.1850 C   0  0  0  0  0  0  0  0  0  0  0  0
  -17.1327   19.9720  -43.6681 C   0  0  0  0  0  0  0  0  0  0  0  0
  -17.0800   18.8264  -41.0018 Cl  0  0  0  0  0  0  0  0  0  0  0  0
  -17.0823   18.8283  -41.0044 Cl  0  0  0  0  0  0  0  0  0  0  0  0
  1  2  1  0
  2  3  1  0
  3  4  2  0
  4  5  1  0
  5  6  2  0
  6  7  1  0
  7  8  2  0
  8  9  1  0
  9 10  1  0
 10 11  1  0
 11 12  1  0
 12 13  2  0
 13 14  1  0
 14 15  2  0
 15 16  1  0
 16 17  2  0
 17 18  1  0
 18 19  2  0
  6 20  1  0
 20 21  1  0
 21 22  1  0
 20 23  2  0
 23  3  1  0
 13  8  1  0
 19 14  1  0
M  END
$$$$
