
     RDKit          3D

 26 29  0  0  0  0  0  0  0  0999 V2000
  -23.7616   31.7945  -36.8261 C   0  0  0  0  0  0  0  0  0  0  0  0
  -24.5041   31.0818  -35.8882 O   0  0  0  0  0  0  0  0  0  0  0  0
  -25.0861   29.8457  -36.1412 C   0  0  0  0  0  0  0  0  0  0  0  0
  -24.2606   28.7803  -36.2824 C   0  0  0  0  0  0  0  0  0  0  0  0
  -24.7929   27.5361  -36.5362 C   0  0  0  0  0  0  0  0  0  0  0  0
  -26.1744   27.3603  -36.6454 C   0  0  0  0  0  0  0  0  0  0  0  0
  -27.0094   28.4339  -36.5024 C   0  0  0  0  0  0  0  0  0  0  0  0
  -26.4448   29.6871  -36.2486 C   0  0  0  0  0  0  0  0  0  0  0  0
  -27.2286   30.8256  -36.0937 O   0  0  0  0  0  0  0  0  0  0  0  0
  -28.0741   31.2854  -37.1023 C   0  0  0  0  0  0  0  0  0  0  0  0
  -26.7563   26.0214  -36.7041 C   0  0  0  0  0  0  0  0  0  0  0  0
  -28.0811   25.8303  -36.9815 C   0  0  0  0  0  0  0  0  0  0  0  0
  -29.0018   26.8217  -37.1177 O   0  0  0  0  0  0  0  0  0  0  0  0
  -29.8653   27.2231  -36.0395 C   0  0  0  0  0  0  0  0  0  0  0  0
  -28.4935   24.4950  -37.1526 C   0  0  0  0  0  0  0  0  0  0  0  0
  -29.8275   24.2682  -37.4280 O   0  0  0  0  0  0  0  0  0  0  0  0
  -30.2504   23.1601  -38.1827 C   0  0  0  0  0  0  0  0  0  0  0  0
  -27.6487   23.4382  -37.0598 C   0  0  0  0  0  0  0  0  0  0  0  0
  -26.2990   23.6406  -36.7807 C   0  0  0  0  0  0  0  0  0  0  0  0
  -25.8774   24.9291  -36.6048 C   0  0  0  0  0  0  0  0  0  0  0  0
  -24.4711   25.1726  -36.1606 C   0  0  0  0  0  0  0  0  0  0  0  0
  -23.9214   26.3773  -36.8112 C   0  0  0  0  0  0  0  0  0  0  0  0
  -23.6169   24.0376  -36.4561 N   0  0  0  0  0  0  0  0  0  0  0  0
  -22.3095   24.3265  -35.9090 C   0  0  0  0  0  0  0  0  0  0  0  0
  -24.1863   22.8241  -35.8807 C   0  0  0  0  0  0  0  0  0  0  0  0
  -25.3815   22.4816  -36.7033 C   0  0  0  0  0  0  0  0  0  0  0  0
  1  2  1  0
  2  3  1  0
  3  4  2  0
  4  5  1  0
  5  6  2  0
  6  7  1  0
  7  8  2  0
  8  9  1  0
  9 10  1  0
  6 11  1  0
 11 12  2  0
 12 13  1  0
 13 14  1  0
 12 15  1  0
 15 16  1  0
 16 17  1  0
 15 18  2  0
 18 19  1  0
 19 20  2  0
 20 21  1  0
 21 22  1  0
 21 23  1  0
 23 24  1  0
 23 25  1  0
 25 26  1  0
  8  3  1  0
 20 11  1  0
 22  5  1  0
 26 19  1  0
M  END
$$$$
