
     RDKit          3D

 36 40  0  0  0  0  0  0  0  0999 V2000
  -16.8805   37.1264  -22.6425 C   0  0  0  0  0  0  0  0  0  0  0  0
  -16.9593   38.5010  -22.3898 O   0  0  0  0  0  0  0  0  0  0  0  0
  -17.9394   39.3425  -22.8742 C   0  0  0  0  0  0  0  0  0  0  0  0
  -18.9330   38.8198  -23.6727 C   0  0  0  0  0  0  0  0  0  0  0  0
  -19.9103   39.6922  -24.1484 C   0  0  0  0  0  0  0  0  0  0  0  0
  -20.9806   39.1905  -24.9964 C   0  0  0  0  0  0  0  0  0  0  0  0
  -21.0904   39.6705  -26.1571 O   0  0  0  0  0  0  0  0  0  0  0  0
  -21.8465   38.1943  -24.4900 N   0  0  0  0  0  0  0  0  0  0  0  0
  -22.8914   37.7051  -25.3215 C   0  0  0  0  0  0  0  0  0  0  0  0
  -23.7780   36.6562  -24.7776 C   0  0  0  0  0  0  0  0  0  0  0  0
  -23.5465   36.2221  -23.3728 C   0  0  1  0  0  0  0  0  0  0  0  0
  -22.4687   35.3084  -23.3897 O   0  0  0  0  0  0  0  0  0  0  0  0
  -23.0333   37.4303  -22.5785 C   0  0  1  0  0  0  0  0  0  0  0  0
  -22.9672   37.1218  -21.1651 N   0  0  0  0  0  0  0  0  0  0  0  0
  -21.6593   37.6973  -23.1581 C   0  0  0  0  0  0  0  0  0  0  0  0
  -19.8485   41.0304  -23.8070 C   0  0  0  0  0  0  0  0  0  0  0  0
  -18.8543   41.5551  -23.0077 C   0  0  0  0  0  0  0  0  0  0  0  0
  -18.5600   42.7797  -22.5326 N   0  0  0  0  0  0  0  0  0  0  0  0
  -17.4462   42.7298  -21.7799 C   0  0  0  0  0  0  0  0  0  0  0  0
  -16.8074   43.8606  -21.0898 C   0  0  0  0  0  0  0  0  0  0  0  0
  -15.6166   44.4335  -21.4874 C   0  0  0  0  0  0  0  0  0  0  0  0
  -15.3530   45.4522  -20.5959 C   0  0  0  0  0  0  0  0  0  0  0  0
  -14.2926   46.3523  -20.5215 C   0  0  0  0  0  0  0  0  0  0  0  0
  -14.2759   47.2791  -19.5178 C   0  0  0  0  0  0  0  0  0  0  0  0
  -15.3127   47.2948  -18.6065 C   0  0  0  0  0  0  0  0  0  0  0  0
  -16.3659   46.4203  -18.6589 C   0  0  0  0  0  0  0  0  0  0  0  0
  -16.3829   45.4784  -19.6790 C   0  0  0  0  0  0  0  0  0  0  0  0
  -17.2473   44.5099  -19.9974 N   0  0  0  0  0  0  0  0  0  0  0  0
  -18.4573   44.1981  -19.2977 C   0  0  0  0  0  0  0  0  0  0  0  0
  -18.2040   43.1759  -18.2080 C   0  0  0  0  0  0  0  0  0  0  0  0
  -19.4408   42.7714  -17.3957 C   0  0  0  0  0  0  0  0  0  0  0  0
  -18.7193   41.8057  -18.2926 C   0  0  0  0  0  0  0  0  0  0  0  0
  -17.0536   41.4446  -21.7974 N   0  0  0  0  0  0  0  0  0  0  0  0
  -15.8887   40.9461  -21.1096 C   0  0  0  0  0  0  0  0  0  0  0  0
  -17.8930   40.6848  -22.5426 C   0  0  0  0  0  0  0  0  0  0  0  0
  -19.3211   40.3703  -22.0421 Cl  0  0  0  0  0  0  0  0  0  0  0  0
  1  2  1  0
  2  3  1  0
  3  4  2  0
  4  5  1  0
  5  6  1  0
  6  7  2  0
  6  8  1  0
  8  9  1  0
  9 10  1  0
 10 11  1  0
 11 12  1  6
 11 13  1  0
 13 14  1  1
 13 15  1  0
  5 16  2  0
 16 17  1  0
 17 18  1  0
 18 19  2  0
 19 20  1  0
 20 21  2  0
 21 22  1  0
 22 23  2  0
 23 24  1  0
 24 25  2  0
 25 26  1  0
 26 27  2  0
 27 28  1  0
 28 29  1  0
 29 30  1  0
 30 31  1  0
 31 32  1  0
 19 33  1  0
 33 34  1  0
 33 35  1  0
 35  3  1  0
 15  8  1  0
 35 17  2  0
 28 20  1  0
 32 30  1  0
 27 22  1  0
M  END
$$$$
