
     RDKit          3D

 26 27  0  0  0  0  0  0  0  0999 V2000
  -21.4773   14.7903  -33.0420 C   0  0  0  0  0  0  0  0  0  0  0  0
  -21.0605   15.1494  -31.6892 C   0  0  0  0  0  0  0  0  0  0  0  0
  -21.5329   16.5582  -31.3759 C   0  0  0  0  0  0  0  0  0  0  0  0
  -19.7226   15.0368  -31.2991 N   0  0  0  0  0  0  0  0  0  0  0  0
  -19.5250   15.3120  -29.9129 C   0  0  0  0  0  0  0  0  0  0  0  0
  -18.1765   15.1126  -29.3538 C   0  0  0  0  0  0  0  0  0  0  0  0
  -17.6538   13.7314  -29.4599 C   0  0  0  0  0  0  0  0  0  0  0  0
  -18.2941   12.7806  -29.9604 O   0  0  0  0  0  0  0  0  0  0  0  0
  -16.3224   13.4672  -28.9538 C   0  0  0  0  0  0  0  0  0  0  0  0
  -15.5122   14.4289  -28.3949 C   0  0  0  0  0  0  0  0  0  0  0  0
  -14.2526   14.0984  -27.9315 C   0  0  0  0  0  0  0  0  0  0  0  0
  -13.7523   12.8068  -28.0049 C   0  0  0  0  0  0  0  0  0  0  0  0
  -12.4822   12.5165  -27.5283 C   0  0  0  0  0  0  0  0  0  0  0  0
  -12.0198   11.2216  -27.6188 C   0  0  0  0  0  0  0  0  0  0  0  0
  -12.8246   10.2300  -28.1817 C   0  0  0  0  0  0  0  0  0  0  0  0
  -14.0811   10.5579  -28.6441 C   0  0  0  0  0  0  0  0  0  0  0  0
  -14.5671   11.8486  -28.5648 C   0  0  0  0  0  0  0  0  0  0  0  0
  -15.8237   12.1871  -29.0253 C   0  0  0  0  0  0  0  0  0  0  0  0
  -18.6432   15.1511  -32.1473 C   0  0  0  0  0  0  0  0  0  0  0  0
  -18.5192   16.4117  -32.9239 C   0  0  0  0  0  0  0  0  0  0  0  0
  -18.9604   16.5175  -34.2266 C   0  0  0  0  0  0  0  0  0  0  0  0
  -18.8517   17.7046  -34.9348 C   0  0  0  0  0  0  0  0  0  0  0  0
  -18.3003   18.8362  -34.3808 C   0  0  0  0  0  0  0  0  0  0  0  0
  -17.8605   18.7296  -33.0835 C   0  0  0  0  0  0  0  0  0  0  0  0
  -17.9614   17.5577  -32.3660 C   0  0  0  0  0  0  0  0  0  0  0  0
  -17.2217   14.2893  -30.4107 Cl  0  0  0  0  0  0  0  0  0  0  0  0
  1  2  1  0
  2  3  1  0
  2  4  1  0
  4  5  1  0
  5  6  1  0
  6  7  1  0
  7  8  2  0
  7  9  1  0
  9 10  2  0
 10 11  1  0
 11 12  2  0
 12 13  1  0
 13 14  2  0
 14 15  1  0
 15 16  2  0
 16 17  1  0
 17 18  2  0
  4 19  1  0
 19 20  1  0
 20 21  2  0
 21 22  1  0
 22 23  2  0
 23 24  1  0
 24 25  2  0
 18  9  1  0
 25 20  1  0
 17 12  1  0
M  END
$$$$
