
     RDKit          3D

 35 38  0  0  0  0  0  0  0  0999 V2000
  -11.1806   -4.5914  -34.0396 C   0  0  0  0  0  0  0  0  0  0  0  0
  -12.0897   -3.6715  -33.7814 C   0  0  0  0  0  0  0  0  0  0  0  0
  -11.8127   -2.2539  -33.7491 C   0  0  0  0  0  0  0  0  0  0  0  0
  -10.6022   -1.8527  -33.7991 O   0  0  0  0  0  0  0  0  0  0  0  0
  -12.8092   -1.2414  -33.6635 N   0  0  0  0  0  0  0  0  0  0  0  0
  -12.4939    0.0613  -33.1770 C   0  0  0  0  0  0  0  0  0  0  0  0
  -11.5884    0.8429  -33.8356 C   0  0  0  0  0  0  0  0  0  0  0  0
  -11.2845    2.1057  -33.3614 C   0  0  0  0  0  0  0  0  0  0  0  0
  -11.9099    2.5695  -32.2090 C   0  0  0  0  0  0  0  0  0  0  0  0
  -12.8284    1.8000  -31.5247 C   0  0  0  0  0  0  0  0  0  0  0  0
  -13.5008    2.2989  -30.2854 C   0  0  0  0  0  0  0  0  0  0  0  0
  -13.1122    0.5343  -32.0276 C   0  0  0  0  0  0  0  0  0  0  0  0
  -14.0503   -0.2810  -31.3492 N   0  0  0  0  0  0  0  0  0  0  0  0
  -15.4302   -0.0320  -31.5398 C   0  0  0  0  0  0  0  0  0  0  0  0
  -15.9424    1.2245  -31.5005 N   0  0  0  0  0  0  0  0  0  0  0  0
  -17.2471    1.4860  -31.6781 C   0  0  0  0  0  0  0  0  0  0  0  0
  -18.1333    0.4594  -31.9125 C   0  0  0  0  0  0  0  0  0  0  0  0
  -19.4744    0.6941  -32.0983 C   0  0  0  0  0  0  0  0  0  0  0  0
  -20.3256   -0.3681  -32.3307 C   0  0  0  0  0  0  0  0  0  0  0  0
  -21.7391   -0.1305  -32.5273 C   0  0  0  0  0  0  0  0  0  0  0  0
  -22.5861   -0.0736  -31.4414 C   0  0  0  0  0  0  0  0  0  0  0  0
  -21.9816   -0.2867  -29.7894 Cl  0  0  0  0  0  0  0  0  0  0  0  0
  -23.9255    0.1548  -31.6708 C   0  0  0  0  0  0  0  0  0  0  0  0
  -24.7890    0.2149  -30.5921 O   0  0  0  0  0  0  0  0  0  0  0  0
  -26.0863    0.7419  -30.6683 C   0  0  0  0  0  0  0  0  0  0  0  0
  -24.4253    0.3257  -32.9626 C   0  0  0  0  0  0  0  0  0  0  0  0
  -23.5449    0.2618  -34.0260 C   0  0  0  0  0  0  0  0  0  0  0  0
  -23.9888    0.4257  -35.3436 O   0  0  0  0  0  0  0  0  0  0  0  0
  -25.0446    1.3395  -35.6062 C   0  0  0  0  0  0  0  0  0  0  0  0
  -22.2014    0.0342  -33.8158 C   0  0  0  0  0  0  0  0  0  0  0  0
  -21.1007   -0.0415  -35.2033 Cl  0  0  0  0  0  0  0  0  0  0  0  0
  -19.8304   -1.6557  -32.3756 C   0  0  0  0  0  0  0  0  0  0  0  0
  -18.4817   -1.8726  -32.1869 C   0  0  0  0  0  0  0  0  0  0  0  0
  -17.6029   -0.8168  -31.9509 C   0  0  0  0  0  0  0  0  0  0  0  0
  -16.2898   -1.0345  -31.7679 N   0  0  0  0  0  0  0  0  0  0  0  0
  1  2  2  0
  2  3  1  0
  3  4  2  0
  3  5  1  0
  5  6  1  0
  6  7  2  0
  7  8  1  0
  8  9  2  0
  9 10  1  0
 10 11  1  0
 10 12  2  0
 12 13  1  0
 13 14  1  0
 14 15  2  0
 15 16  1  0
 16 17  2  0
 17 18  1  0
 18 19  2  0
 19 20  1  0
 20 21  2  0
 21 22  1  0
 21 23  1  0
 23 24  1  0
 24 25  1  0
 23 26  2  0
 26 27  1  0
 27 28  1  0
 28 29  1  0
 27 30  2  0
 30 31  1  0
 19 32  1  0
 32 33  2  0
 33 34  1  0
 34 35  2  0
 12  6  1  0
 35 14  1  0
 34 17  1  0
 30 20  1  0
M  END
$$$$
