
     RDKit          3D

 61 68  0  0  0  0  0  0  0  0999 V2000
   -5.7378   15.0949  -48.4364 C   0  0  0  0  0  0  0  0  0  0  0  0
   -6.8594   15.9240  -47.8868 C   0  0  0  0  0  0  0  0  0  0  0  0
   -7.8755   16.0688  -49.0608 C   0  0  0  0  0  0  0  0  0  0  0  0
   -7.4959   15.2322  -46.7552 C   0  0  0  0  0  0  0  0  0  0  0  0
   -8.6923   16.1196  -46.1223 C   0  0  0  0  0  0  0  0  0  0  0  0
   -8.4342   17.4118  -46.7433 C   0  0  0  0  0  0  0  0  0  0  0  0
   -9.5780   18.3460  -46.2162 C   0  0  0  0  0  0  0  0  0  0  0  0
   -9.6745   18.2712  -44.8261 N   0  0  0  0  0  0  0  0  0  0  0  0
   -9.0566   17.2984  -44.0635 C   0  0  0  0  0  0  0  0  0  0  0  0
   -9.1102   17.7128  -42.5314 C   0  0  0  0  0  0  0  0  0  0  0  0
  -10.2276   18.5842  -42.3530 N   0  0  0  0  0  0  0  0  0  0  0  0
  -11.4802   18.3551  -41.7192 C   0  0  0  0  0  0  0  0  0  0  0  0
  -11.5183   18.1344  -40.3314 C   0  0  0  0  0  0  0  0  0  0  0  0
  -12.6932   17.7556  -39.7332 C   0  0  0  0  0  0  0  0  0  0  0  0
  -13.8220   17.5645  -40.4501 C   0  0  0  0  0  0  0  0  0  0  0  0
  -15.0850   17.1106  -39.8015 C   0  0  0  0  0  0  0  0  0  0  0  0
  -15.8684   16.4079  -40.4018 O   0  0  0  0  0  0  0  0  0  0  0  0
  -15.4651   17.5690  -38.5072 N   0  0  0  0  0  0  0  0  0  0  0  0
  -16.7362   18.4459  -37.9487 S   0  0  0  0  0  6  0  0  0  0  0  0
  -16.1370   19.4867  -36.8879 O   0  0  0  0  0  0  0  0  0  0  0  0
  -17.5273   17.5476  -36.9606 O   0  0  0  0  0  0  0  0  0  0  0  0
  -17.8587   19.3001  -38.9579 C   0  0  0  0  0  0  0  0  0  0  0  0
  -17.5005   20.3814  -39.6396 C   0  0  0  0  0  0  0  0  0  0  0  0
  -18.2582   20.7389  -40.7703 C   0  0  0  0  0  0  0  0  0  0  0  0
  -19.3047   20.0607  -41.1703 C   0  0  0  0  0  0  0  0  0  0  0  0
  -20.1604   20.1121  -42.3552 N   0  0  0  0  0  0  0  0  0  0  0  0
  -20.9005   20.1575  -43.3825 C   0  0  0  0  0  0  0  0  0  0  0  0
  -21.2477   19.0336  -44.3168 C   0  0  0  0  0  0  0  0  0  0  0  0
  -20.0135   18.9047  -45.2081 C   0  0  0  0  0  0  0  0  0  0  0  0
  -20.2503   18.7045  -46.6681 C   0  0  0  0  0  0  0  0  0  0  0  0
  -21.2245   19.6453  -47.0944 O   0  0  0  0  0  0  0  0  0  0  0  0
  -22.4057   19.0645  -46.5267 C   0  0  0  0  0  0  0  0  0  0  0  0
  -22.4599   19.4165  -45.0865 C   0  0  0  0  0  0  0  0  0  0  0  0
  -19.8051   18.8873  -40.4975 C   0  0  0  0  0  0  0  0  0  0  0  0
  -20.8848   18.2211  -40.9092 N   0  0  0  0  0  4  0  0  0  0  0  0
  -21.4480   19.4530  -41.8277 O   0  0  0  0  0  0  0  0  0  0  0  0
  -21.8327   17.5144  -41.2339 O   0  0  0  0  0  1  0  0  0  0  0  0
  -19.0426   18.5532  -39.3798 C   0  0  0  0  0  0  0  0  0  0  0  0
  -13.7528   17.7711  -41.7793 C   0  0  0  0  0  0  0  0  0  0  0  0
  -14.8957   17.5310  -42.5687 O   0  0  0  0  0  0  0  0  0  0  0  0
  -16.0353   18.2569  -42.7607 C   0  0  0  0  0  0  0  0  0  0  0  0
  -17.2702   17.7504  -42.6005 C   0  0  0  0  0  0  0  0  0  0  0  0
  -18.3147   18.5454  -42.7674 N   0  0  0  0  0  0  0  0  0  0  0  0
  -18.1857   19.8641  -43.1169 C   0  0  0  0  0  0  0  0  0  0  0  0
  -19.1056   20.8373  -43.3886 N   0  0  0  0  0  0  0  0  0  0  0  0
  -18.3868   21.9716  -43.7289 C   0  0  0  0  0  0  0  0  0  0  0  0
  -17.1115   21.6888  -43.7145 C   0  0  0  0  0  0  0  0  0  0  0  0
  -16.9278   20.3975  -43.3196 C   0  0  0  0  0  0  0  0  0  0  0  0
  -15.7936   19.5974  -43.1327 C   0  0  0  0  0  0  0  0  0  0  0  0
  -12.6096   18.1740  -42.4402 C   0  0  0  0  0  0  0  0  0  0  0  0
  -10.0590   19.9095  -43.0124 C   0  0  0  0  0  0  0  0  0  0  0  0
   -9.3081   19.6242  -44.3072 C   0  0  0  0  0  0  0  0  0  0  0  0
   -7.4927   18.1056  -47.2531 C   0  0  0  0  0  0  0  0  0  0  0  0
   -7.9459   19.3740  -47.8164 C   0  0  0  0  0  0  0  0  0  0  0  0
   -8.8968   19.4888  -48.7749 C   0  0  0  0  0  0  0  0  0  0  0  0
   -9.4920   20.7372  -49.1018 C   0  0  0  0  0  0  0  0  0  0  0  0
   -9.0888   21.8870  -48.4230 C   0  0  0  0  0  0  0  0  0  0  0  0
   -9.8968   23.4391  -48.5992 Cl  0  0  0  0  0  0  0  0  0  0  0  0
   -8.0990   21.7429  -47.5170 C   0  0  0  0  0  0  0  0  0  0  0  0
   -7.5160   20.5494  -47.1812 C   0  0  0  0  0  0  0  0  0  0  0  0
   -6.2661   17.3097  -47.5652 C   0  0  0  0  0  0  0  0  0  0  0  0
  1  2  1  0
  2  3  1  0
  2  4  1  0
  4  5  1  0
  5  6  1  0
  6  7  1  0
  7  8  1  0
  8  9  1  0
  9 10  1  0
 10 11  1  0
 11 12  1  0
 12 13  2  0
 13 14  1  0
 14 15  2  0
 15 16  1  0
 16 17  2  0
 16 18  1  0
 18 19  1  0
 19 20  2  0
 19 21  2  0
 19 22  1  0
 22 23  2  0
 23 24  1  0
 24 25  2  0
 25 26  1  0
 26 27  1  0
 27 28  1  0
 28 29  1  0
 29 30  1  0
 30 31  1  0
 31 32  1  0
 32 33  1  0
 25 34  1  0
 34 35  1  0
 35 36  2  0
 35 37  1  0
 34 38  2  0
 15 39  1  0
 39 40  1  0
 40 41  1  0
 41 42  2  0
 42 43  1  0
 43 44  2  0
 44 45  1  0
 45 46  1  0
 46 47  2  0
 47 48  1  0
 48 49  2  0
 39 50  2  0
 11 51  1  0
 51 52  1  0
  6 53  2  0
 53 54  1  0
 54 55  2  0
 55 56  1  0
 56 57  2  0
 57 58  1  0
 57 59  1  0
 59 60  2  0
 53 61  1  0
 61  2  1  0
 52  8  1  0
 60 54  1  0
 50 12  1  0
 38 22  1  0
 49 41  1  0
 33 28  1  0
 48 44  1  0
M  CHG  2  35   1  37  -1
M  END
$$$$
