
     RDKit          3D

 30 33  0  0  0  0  0  0  0  0999 V2000
  -16.3953   -7.1130  -31.3265 C   0  0  0  0  0  0  0  0  0  0  0  0
  -16.2971   -5.8102  -32.0852 C   0  0  0  0  0  0  0  0  0  0  0  0
  -16.5206   -4.7187  -31.1900 N   0  0  0  0  0  0  0  0  0  0  0  0
  -17.5257   -3.7948  -31.6713 C   0  0  0  0  0  0  0  0  0  0  0  0
  -17.3383   -2.4283  -31.0706 C   0  0  0  0  0  0  0  0  0  0  0  0
  -16.0528   -1.8328  -31.3615 N   0  0  0  0  0  0  0  0  0  0  0  0
  -16.0806   -1.0106  -32.5458 C   0  0  0  0  0  0  0  0  0  0  0  0
  -14.8362   -0.2079  -32.5642 C   0  0  0  0  0  0  0  0  0  0  0  0
  -14.2761    0.3327  -31.4364 C   0  0  0  0  0  0  0  0  0  0  0  0
  -13.1283    1.0862  -31.4921 C   0  0  0  0  0  0  0  0  0  0  0  0
  -12.5445    1.2887  -32.7291 C   0  0  0  0  0  0  0  0  0  0  0  0
  -11.2948    2.1154  -32.7669 C   0  0  0  0  0  0  0  0  0  0  0  0
  -10.6994    2.1115  -31.5208 F   0  0  0  0  0  0  0  0  0  0  0  0
  -10.3862    1.6352  -33.6703 F   0  0  0  0  0  0  0  0  0  0  0  0
  -11.6931    3.4091  -33.0690 F   0  0  0  0  0  0  0  0  0  0  0  0
  -13.0674    0.7690  -33.8844 C   0  0  0  0  0  0  0  0  0  0  0  0
  -14.2187    0.0175  -33.7990 C   0  0  0  0  0  0  0  0  0  0  0  0
  -17.2721   -0.1702  -32.6977 C   0  0  0  0  0  0  0  0  0  0  0  0
  -17.5307    0.9076  -31.8830 C   0  0  0  0  0  0  0  0  0  0  0  0
  -18.6454    1.7073  -32.0062 C   0  0  0  0  0  0  0  0  0  0  0  0
  -19.5482    1.3824  -33.0252 C   0  0  0  0  0  0  0  0  0  0  0  0
  -20.6929    2.1600  -33.1899 C   0  0  0  0  0  0  0  0  0  0  0  0
  -21.6034    1.8732  -34.1758 C   0  0  0  0  0  0  0  0  0  0  0  0
  -21.3232    0.7900  -34.9793 C   0  0  0  0  0  0  0  0  0  0  0  0
  -20.2205    0.0467  -34.8156 N   0  0  0  0  0  0  0  0  0  0  0  0
  -19.2978    0.3109  -33.8411 C   0  0  0  0  0  0  0  0  0  0  0  0
  -18.1853   -0.4578  -33.6903 C   0  0  0  0  0  0  0  0  0  0  0  0
  -18.0051   -1.5276  -34.5600 O   0  0  0  0  0  0  0  0  0  0  0  0
  -15.0410   -2.8563  -31.5992 C   0  0  0  0  0  0  0  0  0  0  0  0
  -15.3185   -4.0688  -30.7736 C   0  0  0  0  0  0  0  0  0  0  0  0
  1  2  1  0
  2  3  1  0
  3  4  1  0
  4  5  1  0
  5  6  1  0
  6  7  1  0
  7  8  1  0
  8  9  2  0
  9 10  1  0
 10 11  2  0
 11 12  1  0
 12 13  1  0
 12 14  1  0
 12 15  1  0
 11 16  1  0
 16 17  2  0
  7 18  1  0
 18 19  2  0
 19 20  1  0
 20 21  2  0
 21 22  1  0
 22 23  2  0
 23 24  1  0
 24 25  2  0
 25 26  1  0
 26 27  2  0
 27 28  1  0
  6 29  1  0
 29 30  1  0
 30  3  1  0
 17  8  1  0
 27 18  1  0
 26 21  1  0
M  END
$$$$
