
     RDKit          3D

 26 28  0  0  0  0  0  0  0  0999 V2000
  -15.8030    1.9185  -35.9640 C   0  0  0  0  0  0  0  0  0  0  0  0
  -14.9801    1.0626  -35.2132 O   0  0  0  0  0  0  0  0  0  0  0  0
  -15.4831    0.4214  -34.0917 C   0  0  0  0  0  0  0  0  0  0  0  0
  -16.8024    0.5926  -33.8173 C   0  0  0  0  0  0  0  0  0  0  0  0
  -17.3922    0.0053  -32.7286 C   0  0  0  0  0  0  0  0  0  0  0  0
  -18.8085    0.2415  -32.4743 C   0  0  0  0  0  0  0  0  0  0  0  0
  -19.7640   -0.7313  -32.7484 C   0  0  0  0  0  0  0  0  0  0  0  0
  -21.0723   -0.5241  -32.5498 N   0  0  0  0  0  0  0  0  0  0  0  0
  -22.0334   -1.5611  -32.8475 C   0  0  0  0  0  0  0  0  0  0  0  0
  -21.5269    0.6452  -32.0717 C   0  0  0  0  0  0  0  0  0  0  0  0
  -22.7724    0.8496  -31.8806 O   0  0  0  0  0  0  0  0  0  0  0  0
  -20.6401    1.6563  -31.7761 C   0  0  0  0  0  0  0  0  0  0  0  0
  -21.1451    2.8398  -31.2780 C   0  0  0  0  0  0  0  0  0  0  0  0
  -20.2593    3.8077  -30.9875 N   0  0  0  0  0  0  0  0  0  0  0  0
  -18.9330    3.6298  -31.1750 C   0  0  0  0  0  0  0  0  0  0  0  0
  -18.4146    2.4541  -31.6718 C   0  0  0  0  0  0  0  0  0  0  0  0
  -19.2733    1.4416  -31.9825 C   0  0  0  0  0  0  0  0  0  0  0  0
  -16.6042   -0.7678  -31.9147 C   0  0  0  0  0  0  0  0  0  0  0  0
  -15.2677   -0.9747  -32.1457 C   0  0  0  0  0  0  0  0  0  0  0  0
  -14.4651   -1.7551  -31.3280 O   0  0  0  0  0  0  0  0  0  0  0  0
  -14.9588   -2.5516  -30.2888 C   0  0  0  0  0  0  0  0  0  0  0  0
  -14.7047   -0.3596  -33.2668 C   0  0  0  0  0  0  0  0  0  0  0  0
  -13.2868   -0.5863  -33.5920 C   0  0  0  0  0  0  0  0  0  0  0  0
  -12.3641    0.4112  -33.2362 N   0  0  0  0  0  0  0  0  0  0  0  0
  -11.9087    1.2588  -34.2795 C   0  0  0  0  0  0  0  0  0  0  0  0
  -12.8900    1.2172  -32.1549 C   0  0  0  0  0  0  0  0  0  0  0  0
  1  2  1  0
  2  3  1  0
  3  4  2  0
  4  5  1  0
  5  6  1  0
  6  7  2  0
  7  8  1  0
  8  9  1  0
  8 10  1  0
 10 11  2  0
 10 12  1  0
 12 13  2  0
 13 14  1  0
 14 15  2  0
 15 16  1  0
 16 17  2  0
  5 18  2  0
 18 19  1  0
 19 20  1  0
 20 21  1  0
 19 22  2  0
 22 23  1  0
 23 24  1  0
 24 25  1  0
 24 26  1  0
 22  3  1  0
 17  6  1  0
 17 12  1  0
M  END
$$$$
