
     RDKit          3D

 25 28  0  0  0  0  0  0  0  0999 V2000
  -27.5524   11.5957  -20.8669 Cl  0  0  0  0  0  0  0  0  0  0  0  0
  -26.0624   12.4812  -20.4401 C   0  0  0  0  0  0  0  0  0  0  0  0
  -25.1929   11.8933  -19.5275 C   0  0  0  0  0  0  0  0  0  0  0  0
  -24.0086   12.4716  -19.1571 C   0  0  0  0  0  0  0  0  0  0  0  0
  -23.7146   13.6827  -19.7408 C   0  0  0  0  0  0  0  0  0  0  0  0
  -24.5554   14.2896  -20.6470 C   0  0  0  0  0  0  0  0  0  0  0  0
  -25.7389   13.6887  -21.0012 C   0  0  0  0  0  0  0  0  0  0  0  0
  -26.6633   14.3463  -21.9614 C   0  0  0  0  0  0  0  0  0  0  0  0
  -28.0795   14.3487  -21.5511 C   0  0  0  0  0  0  0  0  0  0  0  0
  -29.1089   14.0717  -22.4115 C   0  0  0  0  0  0  0  0  0  0  0  0
  -30.3946   14.0617  -21.9189 C   0  0  0  0  0  0  0  0  0  0  0  0
  -30.7219   14.3114  -20.6123 C   0  0  0  0  0  0  0  0  0  0  0  0
  -29.6739   14.5911  -19.7406 C   0  0  0  0  0  0  0  0  0  0  0  0
  -28.3771   14.6097  -20.1995 C   0  0  0  0  0  0  0  0  0  0  0  0
  -26.5200   13.6462  -23.2529 C   0  0  0  0  0  0  0  0  0  0  0  0
  -25.6796   12.5997  -23.4169 C   0  0  0  0  0  0  0  0  0  0  0  0
  -25.5538   11.9515  -24.6557 C   0  0  0  0  0  0  0  0  0  0  0  0
  -26.3006   12.3980  -25.7073 C   0  0  0  0  0  0  0  0  0  0  0  0
  -27.1713   13.4768  -25.5547 C   0  0  0  0  0  0  0  0  0  0  0  0
  -27.2865   14.1020  -24.3420 C   0  0  0  0  0  0  0  0  0  0  0  0
  -26.3343   15.7742  -22.0997 N   0  0  0  0  0  0  0  0  0  0  0  0
  -25.5103   16.2430  -23.0740 C   0  0  0  0  0  0  0  0  0  0  0  0
  -25.3655   17.6051  -22.9565 C   0  0  0  0  0  0  0  0  0  0  0  0
  -26.1160   17.9393  -21.8972 N   0  0  0  0  0  0  0  0  0  0  0  0
  -26.7003   16.8290  -21.3814 C   0  0  0  0  0  0  0  0  0  0  0  0
  1  2  1  0
  2  3  2  0
  3  4  1  0
  4  5  2  0
  5  6  1  0
  6  7  2  0
  7  8  1  0
  8  9  1  0
  9 10  2  0
 10 11  1  0
 11 12  2  0
 12 13  1  0
 13 14  2  0
  8 15  1  0
 15 16  2  0
 16 17  1  0
 17 18  2  0
 18 19  1  0
 19 20  2  0
  8 21  1  0
 21 22  1  0
 22 23  2  0
 23 24  1  0
 24 25  2  0
  7  2  1  0
 14  9  1  0
 20 15  1  0
 25 21  1  0
M  END
$$$$
