
     RDKit          3D

 18 19  0  0  0  0  0  0  0  0999 V2000
  -16.3310   39.1017  -21.2028 N   0  0  0  0  0  0  0  0  0  0  0  0
  -17.6320   39.9239  -21.9374 S   0  0  0  0  0  6  0  0  0  0  0  0
  -18.3062   40.7867  -20.9362 O   0  0  0  0  0  0  0  0  0  0  0  0
  -17.1305   40.7809  -23.0879 O   0  0  0  0  0  0  0  0  0  0  0  0
  -18.7829   38.7291  -22.5268 C   0  0  0  0  0  0  0  0  0  0  0  0
  -20.0528   38.6276  -21.9965 C   0  0  0  0  0  0  0  0  0  0  0  0
  -20.9489   37.6853  -22.4670 C   0  0  0  0  0  0  0  0  0  0  0  0
  -20.6288   36.8046  -23.4799 C   0  0  0  0  0  0  0  0  0  0  0  0
  -21.5559   35.8400  -23.9567 N   0  0  0  0  0  0  0  0  0  0  0  0
  -21.3922   35.2503  -25.2678 C   0  0  0  0  0  0  0  0  0  0  0  0
  -20.4545   34.1185  -25.2359 C   0  0  0  0  0  0  0  0  0  0  0  0
  -19.5795   33.9049  -26.2853 C   0  0  0  0  0  0  0  0  0  0  0  0
  -18.6849   32.8558  -26.2944 C   0  0  0  0  0  0  0  0  0  0  0  0
  -18.6345   31.9707  -25.2373 C   0  0  0  0  0  0  0  0  0  0  0  0
  -19.5108   32.1911  -24.1946 C   0  0  0  0  0  0  0  0  0  0  0  0
  -20.4105   33.2322  -24.1676 C   0  0  0  0  0  0  0  0  0  0  0  0
  -19.3557   36.9117  -24.0063 C   0  0  0  0  0  0  0  0  0  0  0  0
  -18.4581   37.8511  -23.5394 C   0  0  0  0  0  0  0  0  0  0  0  0
  1  2  1  0
  2  3  2  0
  2  4  2  0
  2  5  1  0
  5  6  2  0
  6  7  1  0
  7  8  2  0
  8  9  1  0
  9 10  1  0
 10 11  1  0
 11 12  2  0
 12 13  1  0
 13 14  2  0
 14 15  1  0
 15 16  2  0
  8 17  1  0
 17 18  2  0
 18  5  1  0
 16 11  1  0
M  END
$$$$
