
     RDKit          3D

 23 26  0  0  0  0  0  0  0  0999 V2000
  -43.8101    8.8947  -34.5597 Cl  0  0  0  0  0  0  0  0  0  0  0  0
  -42.4950    6.1984  -35.3714 O   0  0  0  0  0  0  0  0  0  0  0  0
  -42.8712    7.3488  -34.9575 C   0  0  0  0  0  0  0  0  0  0  0  0
  -41.8924    8.2793  -34.4073 C   0  0  0  0  0  0  0  0  0  0  0  0
  -40.5829    7.9089  -34.3513 C   0  0  0  0  0  0  0  0  0  0  0  0
  -39.6413    8.7620  -33.8520 C   0  0  0  0  0  0  0  0  0  0  0  0
  -40.0666    9.9874  -33.4174 C   0  0  0  0  0  0  0  0  0  0  0  0
  -41.4190   10.3864  -33.4686 C   0  0  0  0  0  0  0  0  0  0  0  0
  -42.3340    9.5102  -33.9722 C   0  0  0  0  0  0  0  0  0  0  0  0
  -43.7606    9.8718  -34.0437 C   0  0  2  0  0  0  0  0  0  0  0  0
  -44.0620   10.7293  -32.8039 C   0  0  0  0  0  0  0  0  0  0  0  0
  -43.2430   11.9789  -32.9282 C   0  0  0  0  0  0  0  0  0  0  0  0
  -41.7815   11.7337  -32.9925 C   0  0  0  0  0  0  0  0  0  0  0  0
  -44.6747    8.6594  -34.0251 C   0  0  0  0  0  0  0  0  0  0  0  0
  -44.2346    7.7382  -35.0252 N   0  0  0  0  0  0  0  0  0  0  0  0
  -45.0532    7.1952  -36.0697 C   0  0  2  0  0  0  0  0  0  0  0  0
  -45.6579    8.1683  -37.0069 C   0  0  0  0  0  0  0  0  0  0  0  0
  -47.0435    7.7889  -37.2509 N   0  0  0  0  0  0  0  0  0  0  0  0
  -47.7814    7.9468  -36.0078 C   0  0  0  0  0  0  0  0  0  0  0  0
  -47.3444    6.8630  -35.0601 C   0  0  0  0  0  0  0  0  0  0  0  0
  -46.1012    6.1989  -35.5570 C   0  0  0  0  0  0  0  0  0  0  0  0
  -46.4965    5.4163  -36.8275 C   0  0  0  0  0  0  0  0  0  0  0  0
  -47.1843    6.4376  -37.7139 C   0  0  0  0  0  0  0  0  0  0  0  0
  2  3  2  0
  3  4  1  0
  4  5  2  0
  5  6  1  0
  6  7  2  0
  7  8  1  0
  8  9  2  0
  9 10  1  0
 10 11  1  1
 11 12  1  0
 12 13  1  0
 10 14  1  0
 14 15  1  0
 16 15  1  1
 16 17  1  0
 17 18  1  0
 18 19  1  0
 19 20  1  0
 20 21  1  0
 21 22  1  0
 22 23  1  0
 15  3  1  0
 21 16  1  0
  9  4  1  0
 23 18  1  0
 13  8  1  0
M  END
$$$$
