
     RDKit          3D

 19 20  0  0  0  0  0  0  0  0999 V2000
  -19.1503   38.0081  -20.1120 C   0  0  0  0  0  0  0  0  0  0  0  0
  -19.5317   39.1181  -20.9668 N   0  0  0  0  0  0  0  0  0  0  0  0
  -20.8360   39.0966  -21.5996 C   0  0  0  0  0  0  0  0  0  0  0  0
  -18.6052   40.1993  -21.1566 C   0  0  0  0  0  0  0  0  0  0  0  0
  -17.7773   40.3195  -22.1801 C   0  0  0  0  0  0  0  0  0  0  0  0
  -17.6043   39.2046  -23.5448 Cl  0  0  0  0  0  0  0  0  0  0  0  0
  -16.9951   41.5570  -22.0128 C   0  0  0  0  0  0  0  0  0  0  0  0
  -16.1166   41.9769  -22.8038 O   0  0  0  0  0  0  0  0  0  0  0  0
  -17.4001   42.1945  -20.8091 N   0  0  0  0  0  0  0  0  0  0  0  0
  -16.8835   43.4094  -20.2971 C   0  0  0  0  0  0  0  0  0  0  0  0
  -17.6759   44.3679  -19.7039 C   0  0  0  0  0  0  0  0  0  0  0  0
  -17.1698   45.5517  -19.2054 C   0  0  0  0  0  0  0  0  0  0  0  0
  -15.8149   45.8255  -19.2854 C   0  0  0  0  0  0  0  0  0  0  0  0
  -15.1941   47.3353  -18.6458 Cl  0  0  0  0  0  0  0  0  0  0  0  0
  -15.0157   44.8745  -19.8760 C   0  0  0  0  0  0  0  0  0  0  0  0
  -13.3016   45.1840  -19.9952 Cl  0  0  0  0  0  0  0  0  0  0  0  0
  -15.5187   43.6928  -20.3739 C   0  0  0  0  0  0  0  0  0  0  0  0
  -18.4071   41.3519  -20.2671 C   0  0  0  0  0  0  0  0  0  0  0  0
  -19.0385   41.5399  -19.2042 O   0  0  0  0  0  0  0  0  0  0  0  0
  1  2  1  0
  2  3  1  0
  2  4  1  0
  4  5  2  0
  5  6  1  0
  5  7  1  0
  7  8  2  0
  7  9  1  0
  9 10  1  0
 10 11  2  0
 11 12  1  0
 12 13  2  0
 13 14  1  0
 13 15  1  0
 15 16  1  0
 15 17  2  0
  9 18  1  0
 18 19  2  0
 18  4  1  0
 17 10  1  0
M  END
$$$$
