
     RDKit          3D

 17 18  0  0  0  0  0  0  0  0999 V2000
  -18.9275   18.7499  -39.2551 O   0  0  0  0  0  0  0  0  0  0  0  0
  -17.6514   18.7085  -39.2438 C   0  0  0  0  0  0  0  0  0  0  0  0
  -16.9419   18.0355  -38.2089 N   0  0  0  0  0  0  0  0  0  0  0  0
  -15.5244   17.9011  -38.2964 C   0  0  0  0  0  0  0  0  0  0  0  0
  -14.7672   18.2486  -37.1883 C   0  0  0  0  0  0  0  0  0  0  0  0
  -13.3936   18.1159  -37.2799 C   0  0  0  0  0  0  0  0  0  0  0  0
  -12.7968   17.6497  -38.4451 C   0  0  0  0  0  0  0  0  0  0  0  0
  -11.0470   17.4977  -38.5148 Cl  0  0  0  0  0  0  0  0  0  0  0  0
  -13.5806   17.3071  -39.5452 C   0  0  0  0  0  0  0  0  0  0  0  0
  -12.8195   16.7186  -41.0145 Cl  0  0  0  0  0  0  0  0  0  0  0  0
  -14.9486   17.4377  -39.4581 C   0  0  0  0  0  0  0  0  0  0  0  0
  -16.9821   19.3632  -40.3084 N   0  0  0  0  0  0  0  0  0  0  0  0
  -17.6870   20.1303  -41.2381 N   0  0  0  0  0  0  0  0  0  0  0  0
  -18.9870   20.0185  -41.5347 C   0  0  0  0  0  0  0  0  0  0  0  0
  -19.2351   20.9455  -42.4720 N   0  0  0  0  0  0  0  0  0  0  0  0
  -18.1114   21.6196  -42.7518 N   0  0  0  0  0  0  0  0  0  0  0  0
  -17.1289   21.1183  -41.9835 C   0  0  0  0  0  0  0  0  0  0  0  0
  1  2  2  0
  2  3  1  0
  3  4  1  0
  4  5  2  0
  5  6  1  0
  6  7  2  0
  7  8  1  0
  7  9  1  0
  9 10  1  0
  9 11  2  0
  2 12  1  0
 12 13  1  0
 13 14  1  0
 14 15  2  0
 15 16  1  0
 16 17  2  0
 11  4  1  0
 17 13  1  0
M  END
$$$$
