
     RDKit          3D

 30 31  0  0  0  0  0  0  0  0999 V2000
  -23.9872   12.0956  -24.9854 C   0  0  0  0  0  0  0  0  0  0  0  0
  -24.7416   13.3787  -24.8773 C   0  0  0  0  0  0  0  0  0  0  0  0
  -24.2707   14.1552  -23.6922 C   0  0  0  0  0  0  0  0  0  0  0  0
  -26.2166   13.0366  -24.7324 C   0  0  0  0  0  0  0  0  0  0  0  0
  -24.5191   14.1847  -26.1121 C   0  0  0  0  0  0  0  0  0  0  0  0
  -23.9723   15.3162  -26.0898 O   0  0  0  0  0  0  0  0  0  0  0  0
  -24.9110   13.7133  -27.3515 O   0  0  0  0  0  0  0  0  0  0  0  0
  -24.3422   14.1346  -28.5438 C   0  0  0  0  0  0  0  0  0  0  0  0
  -23.0428   13.7627  -28.8114 C   0  0  0  0  0  0  0  0  0  0  0  0
  -22.3840   14.1303  -29.9707 C   0  0  0  0  0  0  0  0  0  0  0  0
  -23.0512   14.9010  -30.9004 C   0  0  0  0  0  0  0  0  0  0  0  0
  -22.2270   15.3673  -32.3625 S   0  0  0  0  0  6  0  0  0  0  0  0
  -21.3138   14.2077  -32.7511 O   0  0  0  0  0  0  0  0  0  0  0  0
  -23.2079   15.4580  -33.5190 O   0  0  0  0  0  0  0  0  0  0  0  0
  -21.3119   16.8110  -32.2182 N   0  0  0  0  0  0  0  0  0  0  0  0
  -21.6412   17.8705  -31.3640 C   0  0  0  0  0  0  0  0  0  0  0  0
  -22.9510   18.3075  -31.2578 C   0  0  0  0  0  0  0  0  0  0  0  0
  -23.2397   19.3233  -30.3925 C   0  0  0  0  0  0  0  0  0  0  0  0
  -22.2756   19.9292  -29.6209 C   0  0  0  0  0  0  0  0  0  0  0  0
  -20.9710   19.4756  -29.7432 C   0  0  0  0  0  0  0  0  0  0  0  0
  -20.6247   18.4622  -30.5940 C   0  0  0  0  0  0  0  0  0  0  0  0
  -19.2597   17.9902  -30.7432 C   0  0  0  0  0  0  0  0  0  0  0  0
  -18.8968   17.2375  -31.6773 O   0  0  0  0  0  0  0  0  0  0  0  0
  -18.2440   18.3574  -29.8296 N   0  0  0  0  0  0  0  0  0  0  0  0
  -16.8601   17.8803  -29.9920 C   0  0  0  0  0  0  0  0  0  0  0  0
  -16.1912   18.7037  -31.0015 C   0  0  0  0  0  0  0  0  0  0  0  0
  -16.8553   19.3886  -31.8014 O   0  0  0  0  0  0  0  0  0  0  0  0
  -14.8058   18.7098  -31.0538 O   0  0  0  0  0  0  0  0  0  0  0  0
  -24.3520   15.2759  -30.6374 C   0  0  0  0  0  0  0  0  0  0  0  0
  -25.0071   14.9052  -29.4749 C   0  0  0  0  0  0  0  0  0  0  0  0
  1  2  1  0
  2  3  1  0
  2  4  1  0
  2  5  1  0
  5  6  2  0
  5  7  1  0
  7  8  1  0
  8  9  2  0
  9 10  1  0
 10 11  2  0
 11 12  1  0
 12 13  2  0
 12 14  2  0
 12 15  1  0
 15 16  1  0
 16 17  2  0
 17 18  1  0
 18 19  2  0
 19 20  1  0
 20 21  2  0
 21 22  1  0
 22 23  2  0
 22 24  1  0
 24 25  1  0
 25 26  1  0
 26 27  2  0
 26 28  1  0
 11 29  1  0
 29 30  2  0
 30  8  1  0
 21 16  1  0
M  END
$$$$
