
     RDKit          3D

 26 28  0  0  0  0  0  0  0  0999 V2000
  -18.0962   34.3002  -23.2585 C   0  0  0  0  0  0  0  0  0  0  0  0
  -19.3102   34.0295  -22.4147 C   0  0  0  0  0  0  0  0  0  0  0  0
  -19.1427   32.6912  -21.7416 C   0  0  0  0  0  0  0  0  0  0  0  0
  -19.4795   35.0659  -21.2976 C   0  0  0  0  0  0  0  0  0  0  0  0
  -19.6605   36.4066  -22.0267 C   0  0  0  0  0  0  0  0  0  0  0  0
  -20.1970   36.3093  -23.2417 C   0  0  0  0  0  0  0  0  0  0  0  0
  -20.2402   37.9731  -23.8031 S   0  0  0  0  0  0  0  0  0  0  0  0
  -19.5272   38.7054  -22.3509 C   0  0  0  0  0  0  0  0  0  0  0  0
  -19.2631   40.0908  -22.1554 N   0  0  0  0  0  0  0  0  0  0  0  0
  -20.0665   41.0608  -22.8070 C   0  0  0  0  0  0  0  0  0  0  0  0
  -20.8963   40.5684  -24.1585 S   0  0  0  0  0  0  0  0  0  0  0  0
  -20.2069   42.4060  -22.4240 N   0  0  0  0  0  0  0  0  0  0  0  0
  -20.1777   43.5312  -23.2845 C   0  0  0  0  0  0  0  0  0  0  0  0
  -20.5560   43.3959  -24.4664 O   0  0  0  0  0  0  0  0  0  0  0  0
  -19.7086   44.8510  -22.8133 C   0  0  0  0  0  0  0  0  0  0  0  0
  -20.2287   46.0373  -23.2548 C   0  0  0  0  0  0  0  0  0  0  0  0
  -19.7309   47.2145  -22.7277 C   0  0  0  0  0  0  0  0  0  0  0  0
  -18.7480   47.2538  -21.7908 C   0  0  0  0  0  0  0  0  0  0  0  0
  -18.2183   46.0420  -21.3431 C   0  0  0  0  0  0  0  0  0  0  0  0
  -18.6996   44.8606  -21.8537 C   0  0  0  0  0  0  0  0  0  0  0  0
  -19.3045   37.6163  -21.5342 C   0  0  0  0  0  0  0  0  0  0  0  0
  -18.6955   37.8739  -20.1933 C   0  0  0  0  0  0  0  0  0  0  0  0
  -18.3728   39.0175  -19.8182 O   0  0  0  0  0  0  0  0  0  0  0  0
  -18.4581   36.8439  -19.2853 O   0  0  0  0  0  0  0  0  0  0  0  0
  -20.6560   35.0954  -23.9524 C   0  0  0  0  0  0  0  0  0  0  0  0
  -20.4817   34.0006  -23.1686 O   0  0  0  0  0  0  0  0  0  0  0  0
  1  2  1  0
  2  3  1  0
  2  4  1  0
  4  5  1  0
  5  6  2  0
  6  7  1  0
  7  8  1  0
  8  9  1  0
  9 10  1  0
 10 11  2  0
 10 12  1  0
 12 13  1  0
 13 14  2  0
 13 15  1  0
 15 16  2  0
 16 17  1  0
 17 18  2  0
 18 19  1  0
 19 20  2  0
  8 21  2  0
 21 22  1  0
 22 23  2  0
 22 24  1  0
  6 25  1  0
 25 26  1  0
 26  2  1  0
 21  5  1  0
 20 15  1  0
M  END
$$$$
