
     RDKit          3D

 30 34  0  0  0  0  0  0  0  0999 V2000
  -23.4260   14.5921  -33.1455 C   0  0  0  0  0  0  0  0  0  0  0  0
  -23.1082   15.9863  -32.7509 C   0  0  0  0  0  0  0  0  0  0  0  0
  -24.0930   16.9459  -32.7939 C   0  0  0  0  0  0  0  0  0  0  0  0
  -23.8199   18.2403  -32.4248 C   0  0  0  0  0  0  0  0  0  0  0  0
  -22.5257   18.5668  -32.0063 C   0  0  0  0  0  0  0  0  0  0  0  0
  -21.5811   17.5898  -31.9795 C   0  0  0  0  0  0  0  0  0  0  0  0
  -20.2272   17.8931  -31.5509 C   0  0  0  0  0  0  0  0  0  0  0  0
  -19.0789   17.2660  -31.8409 N   0  0  0  0  0  0  0  0  0  0  0  0
  -18.0428   17.8620  -31.2518 C   0  0  0  0  0  0  0  0  0  0  0  0
  -16.6155   17.5361  -31.2707 C   0  0  0  0  0  0  0  0  0  0  0  0
  -16.3129   16.8634  -29.9124 N   0  0  0  0  0  0  0  0  0  0  0  0
  -16.3927   15.5100  -29.9882 C   0  0  0  0  0  0  0  0  0  0  0  0
  -16.5184   15.6365  -31.6792 C   0  0  0  0  0  0  0  0  0  0  0  0
  -16.6340   14.6398  -32.4737 C   0  0  0  0  0  0  0  0  0  0  0  0
  -16.6829   13.3003  -32.1488 C   0  0  0  0  0  0  0  0  0  0  0  0
  -16.5855   13.1196  -30.7646 C   0  0  0  0  0  0  0  0  0  0  0  0
  -16.4688   14.2302  -30.0615 C   0  0  0  0  0  0  0  0  0  0  0  0
  -16.4122   13.8513  -28.5950 F   0  0  0  0  0  0  0  0  0  0  0  0
  -18.5412   18.8998  -30.5689 N   0  0  0  0  0  0  0  0  0  0  0  0
  -19.8685   18.9577  -30.7233 C   0  0  0  0  0  0  0  0  0  0  0  0
  -20.8144   19.9016  -30.1498 C   0  0  0  0  0  0  0  0  0  0  0  0
  -20.4507   21.1977  -29.8890 C   0  0  0  0  0  0  0  0  0  0  0  0
  -21.3430   22.0968  -29.3223 C   0  0  0  0  0  0  0  0  0  0  0  0
  -22.6216   21.6896  -29.0124 C   0  0  0  0  0  0  0  0  0  0  0  0
  -23.6581   22.3276  -28.4602 N   0  0  0  0  0  0  0  0  0  0  0  0
  -24.6789   21.4542  -28.3656 C   0  0  0  0  0  0  0  0  0  0  0  0
  -24.2375   20.3106  -28.8643 N   0  0  0  0  0  0  0  0  0  0  0  0
  -22.9662   20.4130  -29.2727 N   0  0  0  0  0  0  0  0  0  0  0  0
  -22.0975   19.5228  -29.8306 C   0  0  0  0  0  0  0  0  0  0  0  0
  -21.8730   16.3382  -32.3438 N   0  0  0  0  0  0  0  0  0  0  0  0
  1  2  1  0
  2  3  2  0
  3  4  1  0
  4  5  2  0
  5  6  1  0
  6  7  1  0
  7  8  1  0
  8  9  2  0
  9 10  1  0
 10 11  1  0
 11 12  1  0
 12 13  2  0
 13 14  1  0
 14 15  2  0
 15 16  1  0
 16 17  2  0
 17 18  1  0
  9 19  1  0
 19 20  1  0
 20 21  1  0
 21 22  1  0
 22 23  2  0
 23 24  1  0
 24 25  2  0
 25 26  1  0
 26 27  2  0
 27 28  1  0
 28 29  1  0
  6 30  2  0
 30  2  1  0
 20  7  2  0
 29 21  2  0
 17 12  1  0
 28 24  1  0
M  END
$$$$
