
     RDKit          3D

 31 35  0  0  0  0  0  0  0  0999 V2000
  -21.9144   21.5810  -40.5568 C   0  0  0  0  0  0  0  0  0  0  0  0
  -22.8466   21.1130  -39.5008 C   0  0  0  0  0  0  0  0  0  0  0  0
  -24.0839   20.6351  -39.9043 C   0  0  0  0  0  0  0  0  0  0  0  0
  -24.9435   20.2025  -38.9176 C   0  0  0  0  0  0  0  0  0  0  0  0
  -24.5244   20.2714  -37.6077 C   0  0  0  0  0  0  0  0  0  0  0  0
  -23.2864   20.7539  -37.2578 C   0  0  0  0  0  0  0  0  0  0  0  0
  -22.9237   20.7889  -35.8152 C   0  0  0  0  0  0  0  0  0  0  0  0
  -22.9597   19.4500  -35.1991 C   0  0  0  0  0  0  0  0  0  0  0  0
  -22.7928   18.4331  -35.9181 O   0  0  0  0  0  0  0  0  0  0  0  0
  -23.1793   19.3082  -33.8151 N   0  0  0  0  0  0  0  0  0  0  0  0
  -23.4279   18.0890  -33.0567 C   0  0  0  0  0  0  0  0  0  0  0  0
  -22.7053   18.4226  -31.7425 C   0  0  0  0  0  0  0  0  0  0  0  0
  -22.9244   19.8882  -31.5910 C   0  0  0  0  0  0  0  0  0  0  0  0
  -23.2029   20.3636  -32.8482 C   0  0  0  0  0  0  0  0  0  0  0  0
  -23.4518   21.7281  -32.9831 C   0  0  0  0  0  0  0  0  0  0  0  0
  -23.4213   22.5782  -31.8973 C   0  0  0  0  0  0  0  0  0  0  0  0
  -23.1414   22.1001  -30.6344 C   0  0  0  0  0  0  0  0  0  0  0  0
  -23.0928   22.9397  -29.4448 C   0  0  0  0  0  0  0  0  0  0  0  0
  -22.1493   23.8673  -29.0566 C   0  0  0  0  0  0  0  0  0  0  0  0
  -22.4736   24.4258  -27.8942 N   0  0  0  0  0  0  0  0  0  0  0  0
  -21.7210   25.4351  -27.1864 C   0  0  0  0  0  0  0  0  0  0  0  0
  -23.6488   23.8671  -27.4966 C   0  0  0  0  0  0  0  0  0  0  0  0
  -24.3845   24.0922  -26.3987 N   0  0  0  0  0  0  0  0  0  0  0  0
  -25.5244   23.3864  -26.2551 C   0  0  0  0  0  0  0  0  0  0  0  0
  -25.9353   22.4834  -27.1613 N   0  0  0  0  0  0  0  0  0  0  0  0
  -25.2078   22.2421  -28.2746 C   0  0  0  0  0  0  0  0  0  0  0  0
  -25.6039   21.3015  -29.2516 N   0  0  0  0  0  0  0  0  0  0  0  0
  -24.0411   22.9485  -28.4452 C   0  0  0  0  0  0  0  0  0  0  0  0
  -22.8948   20.7504  -30.4973 C   0  0  0  0  0  0  0  0  0  0  0  0
  -22.6127   20.2103  -29.2861 F   0  0  0  0  0  0  0  0  0  0  0  0
  -22.4606   21.1708  -38.2234 N   0  0  0  0  0  0  0  0  0  0  0  0
  1  2  1  0
  2  3  2  0
  3  4  1  0
  4  5  2  0
  5  6  1  0
  6  7  1  0
  7  8  1  0
  8  9  2  0
  8 10  1  0
 10 11  1  0
 11 12  1  0
 12 13  1  0
 13 14  2  0
 14 15  1  0
 15 16  2  0
 16 17  1  0
 17 18  1  0
 18 19  2  0
 19 20  1  0
 20 21  1  0
 20 22  1  0
 22 23  2  0
 23 24  1  0
 24 25  2  0
 25 26  1  0
 26 27  1  0
 26 28  2  0
 17 29  2  0
 29 30  1  0
  6 31  2  0
 31  2  1  0
 14 10  1  0
 28 18  1  0
 29 13  1  0
 28 22  1  0
M  END
$$$$
