
     RDKit          3D

 17 18  0  0  0  0  0  0  0  0999 V2000
  -19.1262   40.5794  -21.2591 Cl  0  0  0  0  0  0  0  0  0  0  0  0
  -22.9181   36.8438  -23.2510 O   0  0  0  0  0  0  0  0  0  0  0  0
  -22.0625   37.6853  -22.8203 C   0  0  0  0  0  0  0  0  0  0  0  0
  -21.5745   37.6781  -21.4527 C   0  0  0  0  0  0  0  0  0  0  0  0
  -20.6275   38.8077  -21.4338 N   0  0  0  0  0  0  0  0  0  0  0  0
  -19.8087   39.3352  -20.3830 C   0  0  0  0  0  0  0  0  0  0  0  0
  -18.9951   40.4930  -20.7967 C   0  0  0  0  0  0  0  0  0  0  0  0
  -18.9816   41.0470  -22.0351 C   0  0  0  0  0  0  0  0  0  0  0  0
  -18.1625   42.1463  -22.2993 C   0  0  0  0  0  0  0  0  0  0  0  0
  -17.3717   42.6760  -21.3307 C   0  0  0  0  0  0  0  0  0  0  0  0
  -17.3603   42.1408  -20.0668 C   0  0  0  0  0  0  0  0  0  0  0  0
  -16.3345   42.8354  -18.8275 Cl  0  0  0  0  0  0  0  0  0  0  0  0
  -18.1623   41.0699  -19.8203 C   0  0  0  0  0  0  0  0  0  0  0  0
  -18.1742   40.3592  -18.2170 Cl  0  0  0  0  0  0  0  0  0  0  0  0
  -19.8004   40.4973  -23.0352 N   0  0  0  0  0  0  0  0  0  0  0  0
  -20.6197   39.3748  -22.7177 C   0  0  0  0  0  0  0  0  0  0  0  0
  -21.4440   38.7370  -23.5303 N   0  0  0  0  0  0  0  0  0  0  0  0
  2  3  2  0
  3  4  1  0
  4  5  1  0
  5  6  1  0
  6  7  1  0
  7  8  2  0
  8  9  1  0
  9 10  2  0
 10 11  1  0
 11 12  1  0
 11 13  2  0
 13 14  1  0
  8 15  1  0
 15 16  1  0
 16 17  2  0
 17  3  1  0
 16  5  1  0
 13  7  1  0
M  END
$$$$
