
     RDKit          3D

 23 24  0  0  0  0  0  0  0  0999 V2000
  -21.8364   34.8359  -21.1727 C   0  0  0  0  0  0  0  0  0  0  0  0
  -20.9706   36.0351  -20.8192 C   0  0  0  0  0  0  0  0  0  0  0  0
  -20.9790   36.9914  -21.8476 O   0  0  0  0  0  0  0  0  0  0  0  0
  -20.3703   38.2316  -21.7478 C   0  0  0  0  0  0  0  0  0  0  0  0
  -19.4638   38.3491  -20.8942 O   0  0  0  0  0  0  0  0  0  0  0  0
  -20.7452   39.3347  -22.5704 C   0  0  0  0  0  0  0  0  0  0  0  0
  -22.0676   39.5215  -22.7825 C   0  0  0  0  0  0  0  0  0  0  0  0
  -22.4500   40.6695  -23.6370 C   0  0  0  0  0  0  0  0  0  0  0  0
  -21.8425   41.9097  -22.9983 C   0  0  0  0  0  0  0  0  0  0  0  0
  -20.3656   41.7502  -22.8711 C   0  0  0  0  0  0  0  0  0  0  0  0
  -19.8961   40.3193  -23.2359 C   0  0  1  0  0  0  0  0  0  0  0  0
  -18.1938   40.2655  -22.8800 S   0  0  0  0  0  6  0  0  0  0  0  0
  -17.5023   41.2291  -23.8222 O   0  0  0  0  0  0  0  0  0  0  0  0
  -17.6615   38.8980  -23.2895 O   0  0  0  0  0  0  0  0  0  0  0  0
  -17.7552   40.5373  -21.2631 N   0  0  0  0  0  0  0  0  0  0  0  0
  -17.6961   41.8718  -20.7738 C   0  0  0  0  0  0  0  0  0  0  0  0
  -17.7559   42.9877  -21.5713 C   0  0  0  0  0  0  0  0  0  0  0  0
  -17.6985   44.2644  -21.0324 C   0  0  0  0  0  0  0  0  0  0  0  0
  -17.5794   44.4921  -19.6809 C   0  0  0  0  0  0  0  0  0  0  0  0
  -17.5264   45.7538  -19.1918 F   0  0  0  0  0  0  0  0  0  0  0  0
  -17.5192   43.3775  -18.8768 C   0  0  0  0  0  0  0  0  0  0  0  0
  -17.5748   42.1060  -19.3957 C   0  0  0  0  0  0  0  0  0  0  0  0
  -17.4941   40.6861  -18.3416 Cl  0  0  0  0  0  0  0  0  0  0  0  0
  1  2  1  0
  2  3  1  0
  3  4  1  0
  4  5  2  0
  4  6  1  0
  6  7  2  0
  7  8  1  0
  8  9  1  0
  9 10  1  0
 10 11  1  0
 11 12  1  1
 12 13  2  0
 12 14  2  0
 12 15  1  0
 15 16  1  0
 16 17  2  0
 17 18  1  0
 18 19  2  0
 19 20  1  0
 19 21  1  0
 21 22  2  0
 22 23  1  0
 11  6  1  0
 22 16  1  0
M  END
$$$$
