
     RDKit          3D

 23 27  0  0  0  0  0  0  0  0999 V2000
  -18.6316   39.5050  -18.7963 N   0  0  0  0  0  0  0  0  0  0  0  0
  -19.4288   39.3384  -19.6177 C   0  0  0  0  0  0  0  0  0  0  0  0
  -20.4074   39.1094  -20.6227 C   0  0  2  0  0  0  0  0  0  0  0  0
  -20.6185   37.6136  -20.8762 C   0  0  0  0  0  0  0  0  0  0  0  0
  -21.4282   37.6414  -22.1457 C   0  0  1  0  0  0  0  0  0  0  0  0
  -22.5668   38.6418  -22.1341 C   0  0  0  0  0  0  0  0  0  0  0  0
  -21.2911   39.0072  -22.7131 C   0  0  1  0  0  0  0  0  0  0  0  0
  -20.1644   39.5858  -21.9319 N   0  0  0  0  0  0  0  0  0  0  0  0
  -19.2111   40.4221  -22.5579 C   0  0  0  0  0  0  0  0  0  0  0  0
  -19.3366   40.6348  -23.7938 O   0  0  0  0  0  0  0  0  0  0  0  0
  -18.1210   41.0199  -21.8096 C   0  0  1  0  0  0  0  0  0  0  0  0
  -16.9181   40.8510  -22.5880 N   0  0  0  0  0  0  0  0  0  0  0  0
  -18.3091   42.4304  -21.3852 C   0  0  1  0  0  0  0  0  0  0  0  0
  -19.4036   42.6068  -20.3605 C   0  0  0  0  0  0  0  0  0  0  0  0
  -19.5460   44.0634  -20.0317 C   0  0  2  0  0  0  0  0  0  0  0  0
  -19.7504   44.9329  -21.2282 C   0  0  0  0  0  0  0  0  0  0  0  0
  -18.5368   44.8137  -22.1088 C   0  0  1  0  0  0  0  0  0  0  0  0
  -17.2765   45.1742  -21.3891 C   0  0  0  0  0  0  0  0  0  0  0  0
  -17.1416   44.2937  -20.1646 C   0  0  1  0  0  0  0  0  0  0  0  0
  -15.9911   44.5618  -19.4478 O   0  0  0  0  0  0  0  0  0  0  0  0
  -18.3238   44.5398  -19.2786 C   0  0  0  0  0  0  0  0  0  0  0  0
  -17.0492   42.8663  -20.6617 C   0  0  0  0  0  0  0  0  0  0  0  0
  -18.4725   43.3486  -22.5672 C   0  0  0  0  0  0  0  0  0  0  0  0
  1  2  3  0
  3  2  1  1
  3  4  1  0
  5  4  1  1
  5  6  1  0
  7  6  1  1
  7  8  1  0
  8  9  1  0
  9 10  2  0
  9 11  1  0
 11 12  1  6
 11 13  1  0
 13 14  1  1
 15 14  1  6
 15 16  1  0
 17 16  1  1
 17 18  1  0
 18 19  1  0
 19 20  1  1
 19 21  1  0
 19 22  1  0
 17 23  1  0
  8  3  1  0
 22 13  1  0
  7  5  1  0
 23 13  1  0
 21 15  1  0
M  END
$$$$
