
     RDKit          3D

  9  9  0  0  0  0  0  0  0  0999 V2000
  -17.7909   38.3694  -21.8568 O   0  0  0  0  0  0  0  0  0  0  0  0
  -18.1148   37.0191  -21.7679 C   0  0  0  0  0  0  0  0  0  0  0  0
  -17.3376   36.1330  -21.1181 N   0  0  0  0  0  0  0  0  0  0  0  0
  -17.6692   34.8319  -21.0440 C   0  0  0  0  0  0  0  0  0  0  0  0
  -18.8248   34.3475  -21.6333 C   0  0  0  0  0  0  0  0  0  0  0  0
  -19.3735   32.3225  -21.5376 I   0  0  0  0  0  0  0  0  0  0  0  0
  -19.6108   35.2684  -22.2957 C   0  0  0  0  0  0  0  0  0  0  0  0
  -20.7771   34.8891  -22.9133 O   0  0  0  0  0  0  0  0  0  0  0  0
  -19.2329   36.5400  -22.3359 N   0  0  0  0  0  0  0  0  0  0  0  0
  1  2  1  0
  2  3  2  0
  3  4  1  0
  4  5  2  0
  5  6  1  0
  5  7  1  0
  7  8  1  0
  7  9  2  0
  9  2  1  0
M  END
$$$$
