
     RDKit          3D

 22 23  0  0  0  0  0  0  0  0999 V2000
  -15.6743   45.6228  -20.8128 C   0  0  0  0  0  0  0  0  0  0  0  0
  -16.9998   45.7146  -20.3443 O   0  0  0  0  0  0  0  0  0  0  0  0
  -17.9318   44.7941  -20.7992 C   0  0  0  0  0  0  0  0  0  0  0  0
  -18.9108   45.2290  -21.6679 C   0  0  0  0  0  0  0  0  0  0  0  0
  -19.8528   44.3380  -22.1386 C   0  0  0  0  0  0  0  0  0  0  0  0
  -19.7927   43.0186  -21.7249 C   0  0  0  0  0  0  0  0  0  0  0  0
  -20.7808   42.1775  -22.2448 O   0  0  0  0  0  0  0  0  0  0  0  0
  -22.1280   42.2454  -21.8798 C   0  0  0  0  0  0  0  0  0  0  0  0
  -18.8201   42.5771  -20.8593 C   0  0  0  0  0  0  0  0  0  0  0  0
  -18.7787   41.1948  -20.4422 C   0  0  0  0  0  0  0  0  0  0  0  0
  -19.3049   40.8324  -19.2130 C   0  0  0  0  0  0  0  0  0  0  0  0
  -19.2367   39.5012  -18.8704 C   0  0  0  0  0  0  0  0  0  0  0  0
  -19.6995   39.1168  -17.7654 O   0  0  0  0  0  0  0  0  0  0  0  0
  -18.6783   38.6078  -19.7095 N   0  0  0  0  0  0  0  0  0  0  0  0
  -18.1817   39.0214  -20.8955 C   0  0  0  0  0  0  0  0  0  0  0  0
  -17.4943   37.9543  -21.9404 S   0  0  0  0  0  0  0  0  0  0  0  0
  -18.2179   40.3096  -21.2893 N   0  0  0  0  0  0  0  0  0  0  0  0
  -17.6760   40.7081  -22.5651 C   0  0  0  0  0  0  0  0  0  0  0  0
  -18.7906   40.6545  -23.5513 C   0  0  0  0  0  0  0  0  0  0  0  0
  -18.7739   41.4337  -24.7496 N   0  0  0  0  0  0  0  0  0  0  0  0
  -19.7881   39.9248  -23.3711 O   0  0  0  0  0  0  0  0  0  0  0  0
  -17.8937   43.4753  -20.4024 C   0  0  0  0  0  0  0  0  0  0  0  0
  1  2  1  0
  2  3  1  0
  3  4  2  0
  4  5  1  0
  5  6  2  0
  6  7  1  0
  7  8  1  0
  6  9  1  0
  9 10  1  0
 10 11  2  0
 11 12  1  0
 12 13  2  0
 12 14  1  0
 14 15  1  0
 15 16  2  0
 15 17  1  0
 17 18  1  0
 18 19  1  0
 19 20  1  0
 19 21  2  0
  9 22  2  0
 22  3  1  0
 17 10  1  0
M  END
$$$$
