
     RDKit          3D

 16 17  0  0  0  0  0  0  0  0999 V2000
  -16.6254   40.3682  -22.0999 C   0  0  0  0  0  0  0  0  0  0  0  0
  -18.0007   40.3092  -22.7311 C   0  0  0  0  0  0  0  0  0  0  0  0
  -18.9569   39.5821  -21.8191 C   0  0  0  0  0  0  0  0  0  0  0  0
  -18.8235   38.1148  -21.9848 C   0  0  0  0  0  0  0  0  0  0  0  0
  -17.6966   37.4872  -22.4605 C   0  0  0  0  0  0  0  0  0  0  0  0
  -17.6336   36.0952  -22.5916 C   0  0  0  0  0  0  0  0  0  0  0  0
  -18.7122   35.3245  -22.2420 C   0  0  0  0  0  0  0  0  0  0  0  0
  -19.8421   35.9305  -21.7668 C   0  0  0  0  0  0  0  0  0  0  0  0
  -19.8843   37.3007  -21.6453 C   0  0  0  0  0  0  0  0  0  0  0  0
  -20.3707   39.9329  -22.0697 C   0  0  0  0  0  0  0  0  0  0  0  0
  -20.8384   39.6789  -23.2089 O   0  0  0  0  0  0  0  0  0  0  0  0
  -21.1778   40.5268  -21.0896 N   0  0  0  0  0  0  0  0  0  0  0  0
  -20.5784   41.3077  -20.0396 C   0  0  0  0  0  0  0  0  0  0  0  0
  -19.2502   40.8610  -19.6957 N   0  0  0  0  0  0  0  0  0  0  0  0
  -18.5472   39.8803  -20.4213 C   0  0  0  0  0  0  0  0  0  0  0  0
  -17.5916   39.2856  -19.8620 O   0  0  0  0  0  0  0  0  0  0  0  0
  1  2  1  0
  2  3  1  0
  3  4  1  0
  4  5  2  0
  5  6  1  0
  6  7  2  0
  7  8  1  0
  8  9  2  0
  3 10  1  0
 10 11  2  0
 10 12  1  0
 12 13  1  0
 13 14  1  0
 14 15  1  0
 15 16  2  0
 15  3  1  0
  9  4  1  0
M  END
$$$$
