
     RDKit          3D

 29 31  0  0  0  0  0  0  0  0999 V2000
  -20.4192   15.8434  -37.5848 C   0  0  0  0  0  0  0  0  0  0  0  0
  -19.9459   17.0637  -38.1647 N   0  0  0  0  0  0  0  0  0  0  0  0
  -20.7323   18.2727  -38.0000 C   0  0  0  0  0  0  0  0  0  0  0  0
  -18.7200   17.0557  -38.8850 C   0  0  0  0  0  0  0  0  0  0  0  0
  -17.8230   16.0043  -38.7526 C   0  0  0  0  0  0  0  0  0  0  0  0
  -16.6208   15.9696  -39.4378 C   0  0  0  0  0  0  0  0  0  0  0  0
  -16.2602   16.9925  -40.2917 C   0  0  0  0  0  0  0  0  0  0  0  0
  -14.9632   16.9898  -41.0454 C   0  0  0  0  0  0  0  0  0  0  0  0
  -14.6579   15.6579  -41.3617 O   0  0  0  0  0  0  0  0  0  0  0  0
  -15.1845   17.6847  -42.3202 C   0  0  0  0  0  0  0  0  0  0  0  0
  -15.3279   19.0455  -42.3233 C   0  0  0  0  0  0  0  0  0  0  0  0
  -15.5169   19.7007  -43.5086 C   0  0  0  0  0  0  0  0  0  0  0  0
  -15.5652   19.0118  -44.6949 C   0  0  0  0  0  0  0  0  0  0  0  0
  -15.7544   19.7004  -45.9307 N   0  0  0  0  0  0  0  0  0  0  0  0
  -15.6070   19.0079  -47.1874 C   0  0  0  0  0  0  0  0  0  0  0  0
  -16.0985   21.1080  -45.9199 C   0  0  0  0  0  0  0  0  0  0  0  0
  -15.4211   17.6416  -44.6886 C   0  0  0  0  0  0  0  0  0  0  0  0
  -15.2298   16.9817  -43.4901 C   0  0  0  0  0  0  0  0  0  0  0  0
  -13.9459   17.5858  -40.1744 C   0  0  0  0  0  0  0  0  0  0  0  0
  -14.3202   18.4379  -39.1620 C   0  0  0  0  0  0  0  0  0  0  0  0
  -13.4309   19.0243  -38.2933 C   0  0  0  0  0  0  0  0  0  0  0  0
  -12.0865   18.7394  -38.4482 C   0  0  0  0  0  0  0  0  0  0  0  0
  -11.1623   19.3419  -37.5529 N   0  0  0  0  0  0  0  0  0  0  0  0
   -9.7582   19.2587  -37.8674 C   0  0  0  0  0  0  0  0  0  0  0  0
  -11.6367   20.0089  -36.3763 C   0  0  0  0  0  0  0  0  0  0  0  0
  -11.6716   17.8881  -39.4530 C   0  0  0  0  0  0  0  0  0  0  0  0
  -12.5931   17.3295  -40.2923 C   0  0  0  0  0  0  0  0  0  0  0  0
  -17.1416   18.0378  -40.4299 C   0  0  0  0  0  0  0  0  0  0  0  0
  -18.3487   18.0714  -39.7412 C   0  0  0  0  0  0  0  0  0  0  0  0
  1  2  1  0
  2  3  1  0
  2  4  1  0
  4  5  2  0
  5  6  1  0
  6  7  2  0
  7  8  1  0
  8  9  1  0
  8 10  1  0
 10 11  2  0
 11 12  1  0
 12 13  2  0
 13 14  1  0
 14 15  1  0
 14 16  1  0
 13 17  1  0
 17 18  2  0
  8 19  1  0
 19 20  2  0
 20 21  1  0
 21 22  2  0
 22 23  1  0
 23 24  1  0
 23 25  1  0
 22 26  1  0
 26 27  2  0
  7 28  1  0
 28 29  2  0
 29  4  1  0
 18 10  1  0
 27 19  1  0
M  END
$$$$
