
     RDKit          3D

 28 29  0  0  0  0  0  0  0  0999 V2000
  -15.1341   14.6911  -46.3587 C   0  0  0  0  0  0  0  0  0  0  0  0
  -13.7310   14.9636  -46.0149 N   0  0  0  0  0  0  0  0  0  0  0  0
  -13.4150   15.6049  -44.8003 C   0  0  0  0  0  0  0  0  0  0  0  0
  -12.9661   14.8547  -43.8622 O   0  0  0  0  0  0  0  0  0  0  0  0
  -13.5831   17.0663  -44.5854 C   0  0  2  0  0  0  0  0  0  0  0  0
  -12.4148   17.8327  -45.1275 C   0  0  0  0  0  0  0  0  0  0  0  0
  -12.2600   19.1896  -44.5940 C   0  0  0  0  0  0  0  0  0  0  0  0
  -13.1687   20.2244  -44.7361 C   0  0  0  0  0  0  0  0  0  0  0  0
  -12.6952   21.3245  -44.1315 N   0  0  0  0  0  0  0  0  0  0  0  0
  -11.5076   21.0388  -43.6006 C   0  0  0  0  0  0  0  0  0  0  0  0
  -10.6142   21.8224  -42.8791 C   0  0  0  0  0  0  0  0  0  0  0  0
   -9.4382   21.2450  -42.4497 C   0  0  0  0  0  0  0  0  0  0  0  0
   -9.1426   19.9205  -42.7232 C   0  0  0  0  0  0  0  0  0  0  0  0
  -10.0227   19.1360  -43.4379 C   0  0  0  0  0  0  0  0  0  0  0  0
  -11.2009   19.7051  -43.8712 C   0  0  0  0  0  0  0  0  0  0  0  0
  -13.5539   17.2515  -43.1236 N   0  0  0  0  0  0  0  0  0  0  0  0
  -14.3565   18.2573  -42.5445 C   0  0  0  0  0  0  0  0  0  0  0  0
  -14.9978   19.1058  -43.1942 O   0  0  0  0  0  0  0  0  0  0  0  0
  -14.4705   18.3416  -41.0111 C   0  0  1  0  0  0  0  0  0  0  0  0
  -15.8886   18.2398  -40.6703 C   0  0  0  0  0  0  0  0  0  0  0  0
  -16.6481   19.5086  -40.6835 C   0  0  0  0  0  0  0  0  0  0  0  0
  -16.1597   20.6311  -40.4081 O   0  0  0  0  0  0  0  0  0  0  0  0
  -18.0247   19.4620  -41.0299 N   0  0  0  0  0  0  0  0  0  0  0  0
  -18.7689   20.5718  -40.8972 O   0  0  0  0  0  0  0  0  0  0  0  0
  -13.4923   17.3332  -40.5691 C   0  0  0  0  0  0  0  0  0  0  0  0
  -12.0926   17.3147  -40.9915 C   0  0  0  0  0  0  0  0  0  0  0  0
  -11.6329   15.8257  -40.7621 C   0  0  0  0  0  0  0  0  0  0  0  0
  -11.2260   18.0481  -39.9346 C   0  0  0  0  0  0  0  0  0  0  0  0
  1  2  1  0
  2  3  1  0
  3  4  2  0
  3  5  1  0
  5  6  1  6
  6  7  1  0
  7  8  2  0
  8  9  1  0
  9 10  1  0
 10 11  2  0
 11 12  1  0
 12 13  2  0
 13 14  1  0
 14 15  2  0
  5 16  1  0
 16 17  1  0
 17 18  2  0
 17 19  1  0
 19 20  1  6
 20 21  1  0
 21 22  2  0
 21 23  1  0
 23 24  1  0
 19 25  1  0
 25 26  1  0
 26 27  1  0
 26 28  1  0
 15  7  1  0
 15 10  1  0
M  END
$$$$
