
     RDKit          3D

 20 22  0  0  0  0  0  0  0  0999 V2000
  -17.0742   46.8351  -22.3036 C   0  0  0  0  0  0  0  0  0  0  0  0
  -16.4933   45.7390  -21.6729 O   0  0  0  0  0  0  0  0  0  0  0  0
  -17.1147   44.5488  -21.3903 C   0  0  0  0  0  0  0  0  0  0  0  0
  -18.0820   44.0410  -22.2750 C   0  0  0  0  0  0  0  0  0  0  0  0
  -18.7045   42.8438  -21.9869 C   0  0  0  0  0  0  0  0  0  0  0  0
  -18.4033   42.1257  -20.8486 C   0  0  0  0  0  0  0  0  0  0  0  0
  -19.0602   40.8393  -20.5219 C   0  0  0  0  0  0  0  0  0  0  0  0
  -18.3714   40.0980  -19.4089 C   0  0  0  0  0  0  0  0  0  0  0  0
  -18.8914   38.7357  -19.6000 N   0  0  0  0  0  0  0  0  0  0  0  0
  -19.2679   38.5685  -20.9581 C   0  0  0  0  0  0  0  0  0  0  0  0
  -19.7468   37.5417  -21.4926 O   0  0  0  0  0  0  0  0  0  0  0  0
  -18.9919   39.8473  -21.6568 C   0  0  0  0  0  0  0  0  0  0  0  0
  -17.4614   42.6416  -20.0082 C   0  0  0  0  0  0  0  0  0  0  0  0
  -16.7847   43.8655  -20.2449 C   0  0  0  0  0  0  0  0  0  0  0  0
  -15.8622   44.2709  -19.3235 O   0  0  0  0  0  0  0  0  0  0  0  0
  -14.7656   45.0622  -19.4088 C   0  0  0  0  0  0  0  0  0  0  0  0
  -13.5713   44.3219  -20.0637 C   0  0  0  0  0  0  0  0  0  0  0  0
  -12.4116   45.1993  -19.7103 C   0  0  0  0  0  0  0  0  0  0  0  0
  -12.8150   45.9724  -18.4668 C   0  0  0  0  0  0  0  0  0  0  0  0
  -14.1101   45.3191  -18.0298 C   0  0  0  0  0  0  0  0  0  0  0  0
  1  2  1  0
  2  3  1  0
  3  4  2  0
  4  5  1  0
  5  6  2  0
  6  7  1  0
  7  8  1  0
  8  9  1  0
  9 10  1  0
 10 11  2  0
 10 12  1  0
  6 13  1  0
 13 14  2  0
 14 15  1  0
 15 16  1  0
 16 17  1  0
 17 18  1  0
 18 19  1  0
 19 20  1  0
 14  3  1  0
 20 16  1  0
 12  7  1  0
M  END
$$$$
