
     RDKit          3D

 37 40  0  0  0  0  0  0  0  0999 V2000
  -25.5014   -1.8310  -27.6546 C   0  0  0  0  0  0  0  0  0  0  0  0
  -25.9382   -0.8823  -28.6666 N   0  0  0  0  0  0  0  0  0  0  0  0
  -27.3845   -0.7934  -28.7135 C   0  0  0  0  0  0  0  0  0  0  0  0
  -25.3163    0.4131  -28.4781 C   0  0  0  0  0  0  0  0  0  0  0  0
  -26.3271    1.4957  -28.3187 C   0  0  0  0  0  0  0  0  0  0  0  0
  -25.9811    2.7539  -28.1159 C   0  0  0  0  0  0  0  0  0  0  0  0
  -26.8607    3.8883  -28.3522 C   0  0  0  0  0  0  0  0  0  0  0  0
  -27.9613    3.7010  -28.9852 O   0  0  0  0  0  0  0  0  0  0  0  0
  -26.5835    5.2099  -27.9255 N   0  0  0  0  0  0  0  0  0  0  0  0
  -27.4843    6.3040  -28.1077 C   0  0  0  0  0  0  0  0  0  0  0  0
  -28.6948    6.1713  -28.7226 C   0  0  0  0  0  0  0  0  0  0  0  0
  -29.5202    7.2709  -28.8308 C   0  0  0  0  0  0  0  0  0  0  0  0
  -29.0967    8.4957  -28.3064 C   0  0  0  0  0  0  0  0  0  0  0  0
  -27.8767    8.6239  -27.6873 C   0  0  0  0  0  0  0  0  0  0  0  0
  -27.4812    9.9005  -27.1296 C   0  0  0  0  0  0  0  0  0  0  0  0
  -26.4875   10.5197  -27.6472 O   0  0  0  0  0  0  0  0  0  0  0  0
  -28.0989   10.5507  -26.0445 N   0  0  0  0  0  0  0  0  0  0  0  0
  -27.8823   11.9083  -25.6884 C   0  0  0  0  0  0  0  0  0  0  0  0
  -26.6873   12.2694  -25.1043 C   0  0  0  0  0  0  0  0  0  0  0  0
  -26.3909   13.5576  -24.7216 C   0  0  0  0  0  0  0  0  0  0  0  0
  -27.3685   14.5262  -24.9486 C   0  0  0  0  0  0  0  0  0  0  0  0
  -27.0632   15.8454  -24.5448 N   0  0  0  0  0  0  0  0  0  0  0  0
  -26.6114   16.0650  -23.2178 C   0  0  0  0  0  0  0  0  0  0  0  0
  -26.3933   17.3494  -22.7965 N   0  0  0  0  0  0  0  0  0  0  0  0
  -25.9714   17.5751  -21.5441 C   0  0  0  0  0  0  0  0  0  0  0  0
  -25.7392   16.5402  -20.6294 C   0  0  0  0  0  0  0  0  0  0  0  0
  -25.9640   15.2536  -21.0691 C   0  0  0  0  0  0  0  0  0  0  0  0
  -25.7651   14.1139  -20.1926 C   0  0  0  0  0  0  0  0  0  0  0  0
  -25.4262   14.2079  -18.8728 C   0  0  0  0  0  0  0  0  0  0  0  0
  -25.2579   13.0624  -18.0725 C   0  0  0  0  0  0  0  0  0  0  0  0
  -25.4384   11.8139  -18.6367 C   0  0  0  0  0  0  0  0  0  0  0  0
  -25.7716   11.7473  -19.9371 N   0  0  0  0  0  0  0  0  0  0  0  0
  -25.9362   12.8318  -20.7116 C   0  0  0  0  0  0  0  0  0  0  0  0
  -26.3848   15.1162  -22.3361 N   0  0  0  0  0  0  0  0  0  0  0  0
  -28.5875   14.2103  -25.5343 C   0  0  0  0  0  0  0  0  0  0  0  0
  -28.8263   12.8858  -25.8994 C   0  0  0  0  0  0  0  0  0  0  0  0
  -27.0675    7.5265  -27.5878 C   0  0  0  0  0  0  0  0  0  0  0  0
  1  2  1  0
  2  3  1  0
  2  4  1  0
  4  5  1  0
  5  6  2  0
  6  7  1  0
  7  8  2  0
  7  9  1  0
  9 10  1  0
 10 11  2  0
 11 12  1  0
 12 13  2  0
 13 14  1  0
 14 15  1  0
 15 16  2  0
 15 17  1  0
 17 18  1  0
 18 19  2  0
 19 20  1  0
 20 21  2  0
 21 22  1  0
 22 23  1  0
 23 24  2  0
 24 25  1  0
 25 26  2  0
 26 27  1  0
 27 28  1  0
 28 29  2  0
 29 30  1  0
 30 31  2  0
 31 32  1  0
 32 33  2  0
 27 34  2  0
 21 35  1  0
 35 36  2  0
 14 37  2  0
 37 10  1  0
 36 18  1  0
 34 23  1  0
 33 28  1  0
M  END
$$$$
