
     RDKit          3D

 13 13  0  0  0  0  0  0  0  0999 V2000
  -19.3885   31.2168  -21.5090 N   0  0  0  0  0  0  0  0  0  0  0  0
  -19.5509   32.6394  -21.6926 C   0  0  0  0  0  0  0  0  0  0  0  0
  -20.9500   33.3047  -21.2116 S   0  0  0  0  0  0  0  0  0  0  0  0
  -18.5280   33.4297  -22.2713 N   0  0  0  0  0  0  0  0  0  0  0  0
  -18.8400   34.6850  -22.7591 N   0  0  0  0  0  0  0  0  0  0  0  0
  -17.9948   35.5803  -23.1089 C   0  0  0  0  0  0  0  0  0  0  0  0
  -18.1624   36.9561  -22.6366 C   0  0  0  0  0  0  0  0  0  0  0  0
  -17.1499   37.7009  -22.1707 N   0  0  0  0  0  0  0  0  0  0  0  0
  -17.2732   38.9657  -21.7306 C   0  0  0  0  0  0  0  0  0  0  0  0
  -18.5165   39.5571  -21.7508 C   0  0  0  0  0  0  0  0  0  0  0  0
  -19.6097   38.8593  -22.2148 C   0  0  0  0  0  0  0  0  0  0  0  0
  -19.4215   37.5558  -22.6567 C   0  0  0  0  0  0  0  0  0  0  0  0
  -20.5127   36.8207  -23.1341 N   0  0  0  0  0  0  0  0  0  0  0  0
  1  2  1  0
  2  3  2  0
  2  4  1  0
  4  5  1  0
  5  6  2  0
  6  7  1  0
  7  8  2  0
  8  9  1  0
  9 10  2  0
 10 11  1  0
 11 12  2  0
 12 13  1  0
 12  7  1  0
M  END
$$$$
