
     RDKit          3D

 22 23  0  0  0  0  0  0  0  0999 V2000
    4.2182   22.0027  -20.3676 C   0  0  0  0  0  0  0  0  0  0  0  0
    3.5355   21.2256  -19.2993 C   0  0  0  0  0  0  0  0  0  0  0  0
    3.6647   21.9005  -17.9796 C   0  0  0  0  0  0  0  0  0  0  0  0
    2.0112   21.3408  -19.6414 C   0  0  0  0  0  0  0  0  0  0  0  0
    3.8793   19.8043  -19.2189 C   0  0  0  0  0  0  0  0  0  0  0  0
    5.0266   19.5257  -18.7657 O   0  0  0  0  0  0  0  0  0  0  0  0
    3.0362   18.6803  -19.6058 C   0  0  0  0  0  0  0  0  0  0  0  0
    2.5639   18.5412  -20.8302 C   0  0  0  0  0  0  0  0  0  0  0  0
    1.2292   18.1156  -21.2172 C   0  0  0  0  0  0  0  0  0  0  0  0
    0.3488   17.4634  -20.3939 C   0  0  0  0  0  0  0  0  0  0  0  0
   -0.8777   17.0919  -20.8747 C   0  0  0  0  0  0  0  0  0  0  0  0
   -1.2123   17.3763  -22.1733 C   0  0  0  0  0  0  0  0  0  0  0  0
   -0.3627   18.0335  -23.0499 C   0  0  0  0  0  0  0  0  0  0  0  0
   -0.7242   18.3187  -24.3891 N   0  0  0  0  0  4  0  0  0  0  0  0
    0.1334   18.2454  -25.2773 O   0  0  0  0  0  0  0  0  0  0  0  0
   -1.9954   18.6695  -24.7063 O   0  0  0  0  0  1  0  0  0  0  0  0
    0.8600   18.3851  -22.5145 C   0  0  0  0  0  0  0  0  0  0  0  0
    2.7557   17.5983  -18.6900 N   0  0  0  0  0  0  0  0  0  0  0  0
    3.3336   16.4009  -18.7386 C   0  0  0  0  0  0  0  0  0  0  0  0
    2.7492   15.6545  -17.7420 N   0  0  0  0  0  0  0  0  0  0  0  0
    1.8404   16.4050  -17.1167 C   0  0  0  0  0  0  0  0  0  0  0  0
    1.8735   17.5847  -17.7234 N   0  0  0  0  0  0  0  0  0  0  0  0
  1  2  1  0
  2  3  1  0
  2  4  1  0
  2  5  1  0
  5  6  2  0
  5  7  1  0
  7  8  2  0
  8  9  1  0
  9 10  2  0
 10 11  1  0
 11 12  2  0
 12 13  1  0
 13 14  1  0
 14 15  2  0
 14 16  1  0
 13 17  2  0
  7 18  1  0
 18 19  1  0
 19 20  2  0
 20 21  1  0
 21 22  2  0
 17  9  1  0
 22 18  1  0
M  CHG  2  14   1  16  -1
M  END
$$$$
