
     RDKit          3D

 44 48  0  0  0  0  0  0  0  0999 V2000
   -8.3163    1.2352  -34.8170 C   0  0  0  0  0  0  0  0  0  0  0  0
   -9.5590    1.4719  -33.9918 C   0  0  0  0  0  0  0  0  0  0  0  0
  -10.4649    0.4257  -34.1787 O   0  0  0  0  0  0  0  0  0  0  0  0
  -11.7545    0.4328  -33.6465 C   0  0  0  0  0  0  0  0  0  0  0  0
  -12.0396   -0.0670  -32.3956 C   0  0  0  0  0  0  0  0  0  0  0  0
  -13.3266   -0.0449  -31.8980 C   0  0  0  0  0  0  0  0  0  0  0  0
  -14.3852    0.4743  -32.6211 C   0  0  0  0  0  0  0  0  0  0  0  0
  -15.7039    0.4884  -32.0817 N   0  0  0  0  0  0  0  0  0  0  0  0
  -16.5567   -0.5633  -32.2864 C   0  0  0  0  0  0  0  0  0  0  0  0
  -16.0426   -1.6747  -33.0626 C   0  0  1  0  0  0  0  0  0  0  0  0
  -15.8412   -2.8840  -32.1453 C   0  0  0  0  0  0  0  0  0  0  0  0
  -16.8421   -2.0972  -34.2020 N   0  0  0  0  0  0  0  0  0  0  0  0
  -18.2548   -2.2875  -34.1562 C   0  0  0  0  0  0  0  0  0  0  0  0
  -19.1232   -1.1924  -34.6114 C   0  0  0  0  0  0  0  0  0  0  0  0
  -20.4902   -1.3192  -34.3261 C   0  0  0  0  0  0  0  0  0  0  0  0
  -21.3130   -0.3019  -34.7278 C   0  0  0  0  0  0  0  0  0  0  0  0
  -20.8462    0.7969  -35.3780 C   0  0  0  0  0  0  0  0  0  0  0  0
  -19.5416    0.8865  -35.6328 N   0  0  0  0  0  0  0  0  0  0  0  0
  -18.6691   -0.0612  -35.2756 C   0  0  0  0  0  0  0  0  0  0  0  0
  -16.1310   -2.2847  -35.4093 C   0  0  0  0  0  0  0  0  0  0  0  0
  -14.9165   -1.9892  -35.4558 O   0  0  0  0  0  0  0  0  0  0  0  0
  -16.7653   -2.8131  -36.6187 C   0  0  0  0  0  0  0  0  0  0  0  0
  -15.8094   -2.7415  -37.7962 C   0  0  0  0  0  0  0  0  0  0  0  0
  -14.7923   -3.6527  -37.9651 C   0  0  0  0  0  0  0  0  0  0  0  0
  -13.9147   -3.5995  -39.0311 C   0  0  0  0  0  0  0  0  0  0  0  0
  -14.0653   -2.6050  -39.9479 C   0  0  0  0  0  0  0  0  0  0  0  0
  -13.1870   -2.5533  -41.0129 O   0  0  0  0  0  0  0  0  0  0  0  0
  -13.4004   -3.2512  -42.2256 C   0  0  0  0  0  0  0  0  0  0  0  0
  -12.4251   -2.8121  -43.1132 F   0  0  0  0  0  0  0  0  0  0  0  0
  -13.2785   -4.6078  -42.1072 F   0  0  0  0  0  0  0  0  0  0  0  0
  -14.6166   -2.9207  -42.7927 F   0  0  0  0  0  0  0  0  0  0  0  0
  -15.0579   -1.6854  -39.8157 C   0  0  0  0  0  0  0  0  0  0  0  0
  -15.9449   -1.7440  -38.7333 C   0  0  0  0  0  0  0  0  0  0  0  0
  -17.7695   -0.4650  -31.7477 N   0  0  0  0  0  0  0  0  0  0  0  0
  -18.2479    0.5459  -31.0290 C   0  0  0  0  0  0  0  0  0  0  0  0
  -19.4740    0.5600  -30.5288 N   0  0  0  0  0  0  0  0  0  0  0  0
  -19.9047    1.5947  -29.8170 C   0  0  0  0  0  0  0  0  0  0  0  0
  -19.1215    2.6876  -29.5629 C   0  0  0  0  0  0  0  0  0  0  0  0
  -17.8420    2.6889  -30.0764 C   0  0  0  0  0  0  0  0  0  0  0  0
  -17.3984    1.6250  -30.8086 C   0  0  0  0  0  0  0  0  0  0  0  0
  -16.1524    1.5273  -31.3605 C   0  0  0  0  0  0  0  0  0  0  0  0
  -15.3613    2.5119  -31.1659 O   0  0  0  0  0  0  0  0  0  0  0  0
  -14.0818    0.9714  -33.8741 C   0  0  0  0  0  0  0  0  0  0  0  0
  -12.7955    0.9543  -34.3828 C   0  0  0  0  0  0  0  0  0  0  0  0
  1  2  1  0
  2  3  1  0
  3  4  1  0
  4  5  2  0
  5  6  1  0
  6  7  2  0
  7  8  1  0
  8  9  1  0
  9 10  1  0
 10 11  1  1
 10 12  1  0
 12 13  1  0
 13 14  1  0
 14 15  2  0
 15 16  1  0
 16 17  2  0
 17 18  1  0
 18 19  2  0
 12 20  1  0
 20 21  2  0
 20 22  1  0
 22 23  1  0
 23 24  2  0
 24 25  1  0
 25 26  2  0
 26 27  1  0
 27 28  1  0
 28 29  1  0
 28 30  1  0
 28 31  1  0
 26 32  1  0
 32 33  2  0
  9 34  2  0
 34 35  1  0
 35 36  2  0
 36 37  1  0
 37 38  2  0
 38 39  1  0
 39 40  2  0
 40 41  1  0
 41 42  2  0
  7 43  1  0
 43 44  2  0
 44  4  1  0
 41  8  1  0
 19 14  1  0
 33 23  1  0
 40 35  1  0
M  END
$$$$
