
     RDKit          3D

 42 46  0  0  0  0  0  0  0  0999 V2000
  -22.3344   24.0788  -35.0576 C   0  0  0  0  0  0  0  0  0  0  0  0
  -23.2102   25.0722  -34.5535 O   0  0  0  0  0  0  0  0  0  0  0  0
  -23.4265   25.1417  -33.1716 C   0  0  0  0  0  0  0  0  0  0  0  0
  -22.3562   24.9948  -32.3107 C   0  0  0  0  0  0  0  0  0  0  0  0
  -22.5113   25.0541  -30.9454 C   0  0  0  0  0  0  0  0  0  0  0  0
  -23.7736   25.2676  -30.3807 C   0  0  0  0  0  0  0  0  0  0  0  0
  -23.8797   25.3174  -28.9725 N   0  0  0  0  0  0  0  0  0  0  0  0
  -23.7858   26.5661  -28.3173 C   0  0  0  0  0  0  0  0  0  0  0  0
  -23.4558   26.6528  -27.1064 O   0  0  0  0  0  0  0  0  0  0  0  0
  -24.0613   27.7553  -29.0063 O   0  0  0  0  0  0  0  0  0  0  0  0
  -23.9916   28.9999  -28.4354 C   0  0  0  0  0  0  0  0  0  0  0  0
  -25.1314   29.5959  -27.9537 C   0  0  0  0  0  0  0  0  0  0  0  0
  -26.4148   28.8693  -28.0674 C   0  0  0  0  0  0  0  0  0  0  0  0
  -25.0608   30.8450  -27.3807 C   0  0  0  0  0  0  0  0  0  0  0  0
  -23.8313   31.4864  -27.2982 C   0  0  0  0  0  0  0  0  0  0  0  0
  -22.7101   30.8812  -27.7808 C   0  0  0  0  0  0  0  0  0  0  0  0
  -22.7957   29.6362  -28.3494 C   0  0  0  0  0  0  0  0  0  0  0  0
  -21.5380   29.0219  -28.8648 C   0  0  0  0  0  0  0  0  0  0  0  0
  -24.0757   24.1319  -28.2298 C   0  0  0  0  0  0  0  0  0  0  0  0
  -24.3715   24.2178  -26.8639 C   0  0  0  0  0  0  0  0  0  0  0  0
  -24.5640   23.0790  -26.1372 C   0  0  0  0  0  0  0  0  0  0  0  0
  -24.4583   21.9044  -26.7813 N   0  0  0  0  0  0  0  0  0  0  0  0
  -24.1805   21.7614  -28.0731 C   0  0  0  0  0  0  0  0  0  0  0  0
  -24.0767   20.5142  -28.7186 N   0  0  0  0  0  0  0  0  0  0  0  0
  -24.1190   20.3034  -30.1189 C   0  0  0  0  0  0  0  0  0  0  0  0
  -23.6796   21.1709  -31.0720 C   0  0  0  0  0  0  0  0  0  0  0  0
  -23.7862   20.8719  -32.4368 C   0  0  0  0  0  0  0  0  0  0  0  0
  -24.3365   19.6937  -32.8868 C   0  0  0  0  0  0  0  0  0  0  0  0
  -24.4578   19.4053  -34.2707 N   0  0  0  0  0  0  0  0  0  0  0  0
  -24.0974   20.3607  -35.3007 C   0  0  0  0  0  0  0  0  0  0  0  0
  -22.9660   19.8047  -36.1383 C   0  0  0  0  0  0  0  0  0  0  0  0
  -22.7682   18.4039  -35.9369 N   0  0  0  0  0  0  0  0  0  0  0  0
  -22.0698   17.8954  -37.1278 C   0  0  0  0  0  0  0  0  0  0  0  0
  -23.9636   17.6256  -35.7985 C   0  0  0  0  0  0  0  0  0  0  0  0
  -24.9381   18.1170  -34.7796 C   0  0  0  0  0  0  0  0  0  0  0  0
  -24.7792   18.8183  -31.9219 C   0  0  0  0  0  0  0  0  0  0  0  0
  -24.6787   19.1030  -30.5890 C   0  0  0  0  0  0  0  0  0  0  0  0
  -23.9924   22.9094  -28.7778 N   0  0  0  0  0  0  0  0  0  0  0  0
  -24.8301   25.4120  -31.2513 C   0  0  0  0  0  0  0  0  0  0  0  0
  -26.0956   25.6243  -30.7371 O   0  0  0  0  0  0  0  0  0  0  0  0
  -27.2171   25.7860  -31.5942 C   0  0  0  0  0  0  0  0  0  0  0  0
  -24.6696   25.3515  -32.6267 C   0  0  0  0  0  0  0  0  0  0  0  0
  1  2  1  0
  2  3  1  0
  3  4  2  0
  4  5  1  0
  5  6  2  0
  6  7  1  0
  7  8  1  0
  8  9  2  0
  8 10  1  0
 10 11  1  0
 11 12  2  0
 12 13  1  0
 12 14  1  0
 14 15  2  0
 15 16  1  0
 16 17  2  0
 17 18  1  0
  7 19  1  0
 19 20  2  0
 20 21  1  0
 21 22  2  0
 22 23  1  0
 23 24  1  0
 24 25  1  0
 25 26  2  0
 26 27  1  0
 27 28  2  0
 28 29  1  0
 29 30  1  0
 30 31  1  0
 31 32  1  0
 32 33  1  0
 32 34  1  0
 34 35  1  0
 28 36  1  0
 36 37  2  0
 23 38  2  0
  6 39  1  0
 39 40  1  0
 40 41  1  0
 39 42  2  0
 42  3  1  0
 17 11  1  0
 38 19  1  0
 37 25  1  0
 35 29  1  0
M  END
$$$$
