
     RDKit          3D

 31 33  0  0  0  0  0  0  0  0999 V2000
  -25.9021   10.6917  -20.0013 C   0  0  0  0  0  0  0  0  0  0  0  0
  -27.0631   11.2262  -19.4126 O   0  0  0  0  0  0  0  0  0  0  0  0
  -27.7072   12.2969  -19.9815 C   0  0  0  0  0  0  0  0  0  0  0  0
  -27.0231   13.0283  -20.9679 C   0  0  0  0  0  0  0  0  0  0  0  0
  -27.5944   14.1117  -21.5870 C   0  0  0  0  0  0  0  0  0  0  0  0
  -28.8753   14.4643  -21.2061 C   0  0  0  0  0  0  0  0  0  0  0  0
  -29.5934   13.7673  -20.2308 C   0  0  0  0  0  0  0  0  0  0  0  0
  -28.9811   12.6901  -19.6392 C   0  0  0  0  0  0  0  0  0  0  0  0
  -29.7122   11.9250  -18.5962 C   0  0  0  0  0  0  0  0  0  0  0  0
  -31.0362   11.4522  -19.0631 C   0  0  0  0  0  0  0  0  0  0  0  0
  -32.1612   12.2050  -18.7928 C   0  0  0  0  0  0  0  0  0  0  0  0
  -33.4021   11.7937  -19.2116 C   0  0  0  0  0  0  0  0  0  0  0  0
  -33.5067   10.6129  -19.9087 C   0  0  0  0  0  0  0  0  0  0  0  0
  -32.4016    9.8652  -20.1788 C   0  0  0  0  0  0  0  0  0  0  0  0
  -32.4897    8.3436  -21.0700 Cl  0  0  0  0  0  0  0  0  0  0  0  0
  -31.1549   10.2670  -19.7646 C   0  0  0  0  0  0  0  0  0  0  0  0
  -30.0370    9.5648  -20.0067 F   0  0  0  0  0  0  0  0  0  0  0  0
  -29.4996   15.5431  -21.7849 C   0  0  0  0  0  0  0  0  0  0  0  0
  -30.6689   15.8691  -21.4408 O   0  0  0  0  0  0  0  0  0  0  0  0
  -28.8018   16.2282  -22.7315 C   0  0  0  0  0  0  0  0  0  0  0  0
  -29.4568   17.3748  -23.3506 C   0  0  0  0  0  0  0  0  0  0  0  0
  -28.8202   18.0929  -24.1388 O   0  0  0  0  0  0  0  0  0  0  0  0
  -30.7741   17.6509  -23.0560 O   0  0  0  0  0  0  0  0  0  0  0  0
  -27.5298   15.8433  -23.0809 C   0  0  0  0  0  0  0  0  0  0  0  0
  -26.8952   14.8106  -22.5472 N   0  0  0  0  0  0  0  0  0  0  0  0
  -25.5848   14.3778  -22.8868 C   0  0  2  0  0  0  0  0  0  0  0  0
  -24.6789   15.6033  -22.8028 C   0  0  0  0  0  0  0  0  0  0  0  0
  -24.9792   16.4598  -21.7811 O   0  0  0  0  0  0  0  0  0  0  0  0
  -25.4114   13.6397  -24.1846 C   0  0  0  0  0  0  0  0  0  0  0  0
  -26.6144   12.6343  -24.3135 C   0  0  0  0  0  0  0  0  0  0  0  0
  -24.2277   12.8000  -24.4033 C   0  0  0  0  0  0  0  0  0  0  0  0
  1  2  1  0
  2  3  1  0
  3  4  2  0
  4  5  1  0
  5  6  2  0
  6  7  1  0
  7  8  2  0
  8  9  1  0
  9 10  1  0
 10 11  2  0
 11 12  1  0
 12 13  2  0
 13 14  1  0
 14 15  1  0
 14 16  2  0
 16 17  1  0
  6 18  1  0
 18 19  2  0
 18 20  1  0
 20 21  1  0
 21 22  2  0
 21 23  1  0
 20 24  2  0
 24 25  1  0
 25 26  1  0
 26 27  1  6
 27 28  1  0
 26 29  1  0
 29 30  1  0
 29 31  1  0
  8  3  1  0
 16 10  1  0
 25  5  1  0
M  END
$$$$
