
     RDKit          3D

 14 13  0  0  0  0  0  0  0  0999 V2000
  -33.6200   15.8778  -23.9942 C   0  0  0  0  0  0  0  0  0  0  0  0
  -32.6907   14.7263  -24.1679 C   0  0  0  0  0  0  0  0  0  0  0  0
  -32.0427   14.5103  -25.2566 N   0  0  0  0  0  0  0  0  0  0  0  0
  -32.5311   13.8413  -23.0584 N   0  0  0  0  0  0  0  0  0  0  0  0
  -31.4488   12.8737  -23.1036 C   0  0  0  0  0  0  0  0  0  0  0  0
  -30.5399   13.1739  -21.9302 C   0  0  0  0  0  0  0  0  0  0  0  0
  -29.4746   14.6090  -22.2169 S   0  0  0  0  0  0  0  0  0  0  0  0
  -28.1402   14.6923  -20.9854 C   0  0  0  0  0  0  0  0  0  0  0  0
  -27.1914   15.7726  -21.4049 C   0  0  0  0  0  0  0  0  0  0  0  0
  -26.3259   15.4357  -22.5811 C   0  0  2  0  0  0  0  0  0  0  0  0
  -25.5096   14.2928  -22.1861 N   0  0  0  0  0  0  0  0  0  0  0  0
  -25.4398   16.5013  -23.0394 C   0  0  0  0  0  0  0  0  0  0  0  0
  -24.2596   16.5456  -22.6240 O   0  0  0  0  0  0  0  0  0  0  0  0
  -25.8262   17.5030  -23.9349 O   0  0  0  0  0  0  0  0  0  0  0  0
  1  2  1  0
  2  3  2  0
  2  4  1  0
  4  5  1  0
  5  6  1  0
  6  7  1  0
  7  8  1  0
  8  9  1  0
  9 10  1  0
 10 11  1  1
 10 12  1  0
 12 13  2  0
 12 14  1  0
M  END
$$$$
