
     RDKit          3D

 33 36  0  0  0  0  0  0  0  0999 V2000
  -20.1317   21.9816  -36.0669 C   0  0  0  0  0  0  0  0  0  0  0  0
  -21.2987   21.5580  -36.9217 C   0  0  1  0  0  0  0  0  0  0  0  0
  -22.1942   20.8115  -36.0557 N   0  0  0  0  0  0  0  0  0  0  0  0
  -23.1562   19.9329  -36.6159 C   0  0  0  0  0  0  0  0  0  0  0  0
  -24.0352   19.2342  -35.7817 C   0  0  0  0  0  0  0  0  0  0  0  0
  -24.9712   18.3521  -36.2589 C   0  0  0  0  0  0  0  0  0  0  0  0
  -25.8153   17.6872  -35.4012 F   0  0  0  0  0  0  0  0  0  0  0  0
  -25.0778   18.1204  -37.6177 C   0  0  0  0  0  0  0  0  0  0  0  0
  -24.2302   18.7933  -38.4546 C   0  0  0  0  0  0  0  0  0  0  0  0
  -24.3414   18.5602  -39.7934 F   0  0  0  0  0  0  0  0  0  0  0  0
  -23.2748   19.6928  -37.9656 C   0  0  0  0  0  0  0  0  0  0  0  0
  -22.0243   22.7169  -37.5017 C   0  0  0  0  0  0  0  0  0  0  0  0
  -22.9636   23.3713  -36.7417 C   0  0  0  0  0  0  0  0  0  0  0  0
  -23.6591   24.4283  -37.2707 C   0  0  0  0  0  0  0  0  0  0  0  0
  -24.6836   25.1562  -36.5359 C   0  0  0  0  0  0  0  0  0  0  0  0
  -25.9051   24.8107  -36.6166 O   0  0  0  0  0  0  0  0  0  0  0  0
  -24.3697   26.2593  -35.7206 N   0  0  0  0  0  0  0  0  0  0  0  0
  -25.3695   26.9851  -34.9457 C   0  0  0  0  0  0  0  0  0  0  0  0
  -22.9743   26.7073  -35.6371 C   0  0  0  0  0  0  0  0  0  0  0  0
  -23.3924   24.8199  -38.5841 C   0  0  0  0  0  0  0  0  0  0  0  0
  -22.4626   24.1916  -39.3718 C   0  0  0  0  0  0  0  0  0  0  0  0
  -22.1971   24.5778  -40.6659 C   0  0  0  0  0  0  0  0  0  0  0  0
  -22.8306   25.5549  -41.1728 O   0  0  0  0  0  0  0  0  0  0  0  0
  -21.2526   23.9179  -41.4194 C   0  0  0  0  0  0  0  0  0  0  0  0
  -20.5963   22.8539  -40.7996 C   0  0  0  0  0  0  0  0  0  0  0  0
  -19.6126   22.1109  -41.4765 N   0  0  0  0  0  0  0  0  0  0  0  0
  -19.3640   22.3987  -42.8762 C   0  0  0  0  0  0  0  0  0  0  0  0
  -19.7282   21.0923  -43.5972 C   0  0  0  0  0  0  0  0  0  0  0  0
  -18.9140   20.1182  -43.0746 O   0  0  0  0  0  0  0  0  0  0  0  0
  -19.1689   19.8193  -41.7585 C   0  0  0  0  0  0  0  0  0  0  0  0
  -18.8296   21.0566  -40.9065 C   0  0  0  0  0  0  0  0  0  0  0  0
  -20.8995   22.5429  -39.5690 O   0  0  0  0  0  0  0  0  0  0  0  0
  -21.7714   23.1138  -38.7964 C   0  0  0  0  0  0  0  0  0  0  0  0
  2  1  1  1
  2  3  1  0
  3  4  1  0
  4  5  2  0
  5  6  1  0
  6  7  1  0
  6  8  2  0
  8  9  1  0
  9 10  1  0
  9 11  2  0
  2 12  1  0
 12 13  2  0
 13 14  1  0
 14 15  1  0
 15 16  2  0
 15 17  1  0
 17 18  1  0
 17 19  1  0
 14 20  2  0
 20 21  1  0
 21 22  1  0
 22 23  2  0
 22 24  1  0
 24 25  2  0
 25 26  1  0
 26 27  1  0
 27 28  1  0
 28 29  1  0
 29 30  1  0
 30 31  1  0
 25 32  1  0
 32 33  1  0
 11  4  1  0
 33 12  1  0
 33 21  2  0
 31 26  1  0
M  END
$$$$
