
     RDKit          3D

 28 30  0  0  0  0  0  0  0  0999 V2000
  -20.4021   17.1105  -38.1093 C   0  0  0  0  0  0  0  0  0  0  0  0
  -19.2684   18.0409  -37.9781 C   0  0  0  0  0  0  0  0  0  0  0  0
  -18.6082   18.0765  -36.7513 C   0  0  0  0  0  0  0  0  0  0  0  0
  -17.5432   18.9249  -36.5677 C   0  0  0  0  0  0  0  0  0  0  0  0
  -16.8595   18.9635  -35.3009 N   0  0  0  0  0  0  0  0  0  0  0  0
  -16.2922   17.9298  -34.7317 N   0  0  0  0  0  0  0  0  0  0  0  0
  -15.7652   18.3909  -33.5603 C   0  0  0  0  0  0  0  0  0  0  0  0
  -15.0319   17.5831  -32.5858 C   0  0  0  0  0  0  0  0  0  0  0  0
  -15.8421   16.4874  -31.9925 C   0  0  0  0  0  0  0  0  0  0  0  0
  -15.4438   15.1613  -32.1567 C   0  0  0  0  0  0  0  0  0  0  0  0
  -16.1637   14.1104  -31.6242 C   0  0  0  0  0  0  0  0  0  0  0  0
  -15.7788   12.8081  -31.7814 F   0  0  0  0  0  0  0  0  0  0  0  0
  -17.3097   14.3930  -30.9103 C   0  0  0  0  0  0  0  0  0  0  0  0
  -17.7476   15.6996  -30.7195 C   0  0  0  0  0  0  0  0  0  0  0  0
  -18.9886   15.9498  -29.9426 C   0  0  0  0  0  0  0  0  0  0  0  0
  -20.0535   15.2246  -30.4374 F   0  0  0  0  0  0  0  0  0  0  0  0
  -19.2950   17.2949  -29.9393 F   0  0  0  0  0  0  0  0  0  0  0  0
  -18.8077   15.5396  -28.6268 F   0  0  0  0  0  0  0  0  0  0  0  0
  -16.9943   16.7031  -31.2701 C   0  0  0  0  0  0  0  0  0  0  0  0
  -16.0326   19.6928  -33.4601 N   0  0  0  0  0  0  0  0  0  0  0  0
  -16.7227   20.0522  -34.5586 C   0  0  0  0  0  0  0  0  0  0  0  0
  -17.2238   21.4204  -34.8555 C   0  0  0  0  0  0  0  0  0  0  0  0
  -17.1402   19.7371  -37.6135 C   0  0  0  0  0  0  0  0  0  0  0  0
  -17.8117   19.6796  -38.8130 C   0  0  0  0  0  0  0  0  0  0  0  0
  -18.8926   18.8313  -39.0281 C   0  0  0  0  0  0  0  0  0  0  0  0
  -19.5523   18.8165  -40.3018 C   0  0  0  0  0  0  0  0  0  0  0  0
  -19.0486   19.3515  -41.5094 N   0  0  0  0  0  0  0  0  0  0  0  0
  -20.7111   18.2678  -40.3624 O   0  0  0  0  0  0  0  0  0  0  0  0
  1  2  1  0
  2  3  2  0
  3  4  1  0
  4  5  1  0
  5  6  1  0
  6  7  2  0
  7  8  1  0
  8  9  1  0
  9 10  2  0
 10 11  1  0
 11 12  1  0
 11 13  2  0
 13 14  1  0
 14 15  1  0
 15 16  1  0
 15 17  1  0
 15 18  1  0
 14 19  2  0
  7 20  1  0
 20 21  2  0
 21 22  1  0
  4 23  2  0
 23 24  1  0
 24 25  2  0
 25 26  1  0
 26 27  1  0
 26 28  2  0
 25  2  1  0
 21  5  1  0
 19  9  1  0
M  END
$$$$
