
     RDKit          3D

 11  9  0  0  0  0  0  0  0  0999 V2000
  -18.6096   41.5664  -22.2338 C   0  0  0  0  0  0  0  0  0  0  0  0
  -17.8303   40.3885  -22.4360 N   0  0  0  0  0  0  0  0  0  0  0  0
  -18.5369   39.1672  -22.1130 C   0  0  0  0  0  0  0  0  0  0  0  0
  -17.5762   38.0024  -22.3810 C   0  0  0  0  0  0  0  0  0  0  0  0
  -18.2576   36.7044  -22.0621 C   0  0  0  0  0  0  0  0  0  0  0  0
  -18.2761   36.0400  -20.8539 C   0  0  0  0  0  0  0  0  0  0  0  0
  -18.9975   34.9209  -21.0028 N   0  0  0  0  0  0  0  0  0  0  0  0
  -19.4400   34.8510  -22.2697 C   0  0  0  0  0  0  0  0  0  0  0  0
  -18.9837   35.9429  -22.9077 N   0  0  0  0  0  0  0  0  0  0  0  0
  -18.5975   37.4622  -21.8671 Cl  0  0  0  0  0  0  0  0  0  0  0  0
  -18.5968   37.4656  -21.8676 Cl  0  0  0  0  0  0  0  0  0  0  0  0
  1  2  1  0
  2  3  1  0
  3  4  1  0
  4  5  1  0
  5  6  2  0
  6  7  1  0
  7  8  1  0
  8  9  2  0
  9  5  1  0
M  END
$$$$
