
     RDKit          3D

 28 32  0  0  0  0  0  0  0  0999 V2000
  -15.9054   13.7689  -26.9259 C   0  0  0  0  0  0  0  0  0  0  0  0
  -16.5709   14.3835  -28.1254 C   0  0  0  0  0  0  0  0  0  0  0  0
  -17.7335   15.0467  -28.1521 N   0  0  0  0  0  0  0  0  0  0  0  0
  -17.9968   15.4538  -29.3781 N   0  0  0  0  0  0  0  0  0  0  0  0
  -19.1474   16.1926  -29.8033 C   0  0  0  0  0  0  0  0  0  0  0  0
  -20.3555   16.0064  -29.2665 N   0  0  0  0  0  0  0  0  0  0  0  0
  -21.4545   16.6784  -29.6385 C   0  0  0  0  0  0  0  0  0  0  0  0
  -21.3249   17.5943  -30.6122 N   0  0  0  0  0  0  0  0  0  0  0  0
  -20.1478   17.8467  -31.2076 C   0  0  0  0  0  0  0  0  0  0  0  0
  -19.7243   18.6874  -32.1886 N   0  0  0  0  0  0  0  0  0  0  0  0
  -18.4187   18.5134  -32.3851 C   0  0  0  0  0  0  0  0  0  0  0  0
  -17.9900   17.5561  -31.5291 N   0  0  0  0  0  0  0  0  0  0  0  0
  -19.0393   17.1425  -30.8055 C   0  0  0  0  0  0  0  0  0  0  0  0
  -16.9957   15.0649  -30.2148 C   0  0  0  0  0  0  0  0  0  0  0  0
  -16.0866   14.3847  -29.4397 C   0  0  0  0  0  0  0  0  0  0  0  0
  -14.9054   13.8000  -30.0712 C   0  0  0  0  0  0  0  0  0  0  0  0
  -13.8909   13.2354  -29.2119 C   0  0  0  0  0  0  0  0  0  0  0  0
  -12.9855   14.0286  -28.5541 C   0  0  0  0  0  0  0  0  0  0  0  0
  -12.0072   13.5288  -27.7195 C   0  0  0  0  0  0  0  0  0  0  0  0
  -11.9381   12.1667  -27.5396 C   0  0  0  0  0  0  0  0  0  0  0  0
  -11.0039   11.6131  -26.7350 F   0  0  0  0  0  0  0  0  0  0  0  0
  -12.8398   11.3554  -28.1933 C   0  0  0  0  0  0  0  0  0  0  0  0
  -13.8109   11.8780  -29.0245 C   0  0  0  0  0  0  0  0  0  0  0  0
  -14.8921   10.7393  -29.8199 Cl  0  0  0  0  0  0  0  0  0  0  0  0
  -14.4039   14.7161  -31.1465 C   0  0  0  0  0  0  0  0  0  0  0  0
  -15.5409   14.7783  -32.1495 C   0  0  0  0  0  0  0  0  0  0  0  0
  -15.4463   14.4212  -33.3330 O   0  0  0  0  0  0  0  0  0  0  0  0
  -16.7774   15.2981  -31.6138 N   0  0  0  0  0  0  0  0  0  0  0  0
  1  2  1  0
  2  3  2  0
  3  4  1  0
  4  5  1  0
  5  6  2  0
  6  7  1  0
  7  8  2  0
  8  9  1  0
  9 10  1  0
 10 11  1  0
 11 12  2  0
 12 13  1  0
  4 14  1  0
 14 15  2  0
 15 16  1  0
 16 17  1  0
 17 18  2  0
 18 19  1  0
 19 20  2  0
 20 21  1  0
 20 22  1  0
 22 23  2  0
 23 24  1  0
 16 25  1  0
 25 26  1  0
 26 27  2  0
 26 28  1  0
 15  2  1  0
 23 17  1  0
 13  5  1  0
 28 14  1  0
 13  9  2  0
M  END
$$$$
