
     RDKit          3D

 21 21  0  0  0  0  0  0  0  0999 V2000
  -20.0533   40.8448  -20.2638 Cl  0  0  0  0  0  0  0  0  0  0  0  0
  -17.9737   36.0248  -22.7990 N   0  0  0  0  0  0  0  0  0  0  0  0
  -19.0293   36.6258  -22.0074 C   0  0  0  0  0  0  0  0  0  0  0  0
  -18.6112   37.9905  -21.4831 C   0  0  0  0  0  0  0  0  0  0  0  0
  -19.7172   38.6065  -20.6608 C   0  0  0  0  0  0  0  0  0  0  0  0
  -19.3588   39.9503  -20.1204 C   0  0  0  0  0  0  0  0  0  0  0  0
  -19.0543   40.9199  -21.1227 N   0  0  0  0  0  0  0  0  0  0  0  0
  -18.6597   42.4151  -20.3943 S   0  0  0  0  0  6  0  0  0  0  0  0
  -18.2790   43.4380  -21.4435 O   0  0  0  0  0  0  0  0  0  0  0  0
  -17.4700   42.2724  -19.4780 O   0  0  0  0  0  0  0  0  0  0  0  0
  -19.9662   43.0821  -19.4595 C   0  0  0  0  0  0  0  0  0  0  0  0
  -20.0955   42.7770  -18.1202 C   0  0  0  0  0  0  0  0  0  0  0  0
  -21.0794   43.2469  -17.3075 C   0  0  0  0  0  0  0  0  0  0  0  0
  -22.0353   44.1031  -17.8602 C   0  0  0  0  0  0  0  0  0  0  0  0
  -23.0520   44.6079  -17.0848 C   0  0  0  0  0  0  0  0  0  0  0  0
  -23.1175   44.1500  -15.3873 Cl  0  0  0  0  0  0  0  0  0  0  0  0
  -23.9700   45.4426  -17.6578 C   0  0  0  0  0  0  0  0  0  0  0  0
  -23.8910   45.7833  -18.9941 C   0  0  0  0  0  0  0  0  0  0  0  0
  -22.8712   45.2805  -19.7838 C   0  0  0  0  0  0  0  0  0  0  0  0
  -21.9378   44.4306  -19.1977 C   0  0  0  0  0  0  0  0  0  0  0  0
  -20.9143   43.9309  -20.0067 C   0  0  0  0  0  0  0  0  0  0  0  0
  2  3  1  0
  3  4  1  0
  4  5  1  0
  5  6  1  0
  6  7  1  0
  7  8  1  0
  8  9  2  0
  8 10  2  0
  8 11  1  0
 11 12  2  0
 12 13  1  0
 13 14  2  0
 14 15  1  0
 15 16  1  0
 15 17  2  0
 17 18  1  0
 18 19  2  0
 19 20  1  0
 20 21  2  0
 21 11  1  0
 20 14  1  0
M  END
$$$$
