
     RDKit          3D

 29 33  0  0  0  0  0  0  0  0999 V2000
  -17.5423   38.5174  -21.2360 C   0  0  0  0  0  0  0  0  0  0  0  0
  -17.9625   39.8813  -21.6506 C   0  0  0  0  0  0  0  0  0  0  0  0
  -18.9795   40.3803  -21.2198 O   0  0  0  0  0  0  0  0  0  0  0  0
  -16.9583   40.7967  -22.7969 S   0  0  0  0  0  0  0  0  0  0  0  0
  -16.7878   42.4938  -22.2128 C   0  0  0  0  0  0  0  0  0  0  0  0
  -15.6450   42.4886  -21.2159 C   0  0  0  0  0  0  0  0  0  0  0  0
  -15.4031   43.7829  -20.5821 C   0  0  0  0  0  0  0  0  0  0  0  0
  -14.2743   44.0906  -20.0236 C   0  0  0  0  0  0  0  0  0  0  0  0
  -14.0268   45.3863  -19.3857 C   0  0  0  0  0  0  0  0  0  0  0  0
  -12.8641   45.7342  -19.0484 O   0  0  0  0  0  0  0  0  0  0  0  0
  -15.1339   46.2975  -19.1308 C   0  0  0  0  0  0  0  0  0  0  0  0
  -16.4502   45.6282  -19.3245 C   0  0  0  0  0  0  0  0  0  0  0  0
  -16.5291   44.7788  -20.5774 C   0  0  0  0  0  0  0  0  0  0  0  0
  -16.5378   45.6745  -21.7627 C   0  0  0  0  0  0  0  0  0  0  0  0
  -17.7488   43.8893  -20.4436 C   0  0  0  0  0  0  0  0  0  0  0  0
  -18.9924   44.6102  -20.0493 C   0  0  0  0  0  0  0  0  0  0  0  0
  -20.0405   43.5947  -19.6447 C   0  0  0  0  0  0  0  0  0  0  0  0
  -19.8533   42.2445  -20.2548 C   0  0  0  0  0  0  0  0  0  0  0  0
  -19.0649   41.2713  -19.4565 C   0  0  0  0  0  0  0  0  0  0  0  0
  -19.2849   42.4774  -21.6662 C   0  0  0  0  0  0  0  0  0  0  0  0
  -19.5302   41.1461  -22.2513 C   0  0  0  0  0  0  0  0  0  0  0  0
  -21.0598   41.0741  -22.0292 C   0  0  0  0  0  0  0  0  0  0  0  0
  -21.1566   41.5704  -20.6205 C   0  0  0  0  0  0  0  0  0  0  0  0
  -22.3784   42.4076  -20.3655 C   0  0  0  0  0  0  0  0  0  0  0  0
  -23.4647   41.3241  -20.4395 C   0  0  0  0  0  0  0  0  0  0  0  0
  -22.7350   40.0648  -20.1355 C   0  0  0  0  0  0  0  0  0  0  0  0
  -23.2525   38.9177  -20.1881 O   0  0  0  0  0  0  0  0  0  0  0  0
  -21.4430   40.4459  -19.8055 O   0  0  0  0  0  0  0  0  0  0  0  0
  -18.0112   43.1553  -21.7620 C   0  0  0  0  0  0  0  0  0  0  0  0
  1  2  1  0
  2  3  2  0
  2  4  1  0
  4  5  1  0
  5  6  1  0
  6  7  1  0
  7  8  2  0
  8  9  1  0
  9 10  2  0
  9 11  1  0
 11 12  1  0
 12 13  1  0
 13 14  1  0
 13 15  1  0
 15 16  1  0
 16 17  1  0
 17 18  1  0
 18 19  1  0
 18 20  1  0
 20 21  1  0
 21 22  1  0
 22 23  1  0
 23 24  1  0
 24 25  1  0
 25 26  1  0
 26 27  2  0
 26 28  1  0
 20 29  1  0
 29  5  1  0
 13  7  1  0
 29 15  1  0
 23 18  1  0
 28 23  1  0
M  END
$$$$
