
     RDKit          3D

 31 35  0  0  0  0  0  0  0  0999 V2000
  -17.4153    1.1806  -35.7554 C   0  0  0  0  0  0  0  0  0  0  0  0
  -18.5923    0.7927  -35.0763 O   0  0  0  0  0  0  0  0  0  0  0  0
  -18.5753   -0.0507  -33.9601 C   0  0  0  0  0  0  0  0  0  0  0  0
  -17.3501   -0.5851  -33.6005 C   0  0  0  0  0  0  0  0  0  0  0  0
  -17.3270   -1.4147  -32.5044 C   0  0  0  0  0  0  0  0  0  0  0  0
  -18.4797   -1.6965  -31.8000 C   0  0  0  0  0  0  0  0  0  0  0  0
  -19.6777   -1.1439  -32.1917 C   0  0  0  0  0  0  0  0  0  0  0  0
  -19.7324   -0.3184  -33.2732 C   0  0  0  0  0  0  0  0  0  0  0  0
  -20.9926    0.2641  -33.6865 C   0  0  0  0  0  0  0  0  0  0  0  0
  -22.1030   -0.4373  -34.1074 C   0  0  0  0  0  0  0  0  0  0  0  0
  -22.2949   -1.9085  -34.2432 C   0  0  0  0  0  0  0  0  0  0  0  0
  -23.0180    0.5226  -34.3824 N   0  0  0  0  0  0  0  0  0  0  0  0
  -22.5090    1.6959  -34.1497 O   0  0  0  0  0  0  0  0  0  0  0  0
  -21.2730    1.6123  -33.7215 C   0  0  0  0  0  0  0  0  0  0  0  0
  -20.3738    2.7637  -33.3534 C   0  0  0  0  0  0  0  0  0  0  0  0
  -18.4646   -2.5063  -30.7301 N   0  0  0  0  0  0  0  0  0  0  0  0
  -17.3325   -3.0678  -30.3095 C   0  0  0  0  0  0  0  0  0  0  0  0
  -16.1558   -2.8199  -30.9753 C   0  0  0  0  0  0  0  0  0  0  0  0
  -14.8897   -3.2299  -30.7928 N   0  0  0  0  0  0  0  0  0  0  0  0
  -14.1298   -2.6791  -31.7401 C   0  0  0  0  0  0  0  0  0  0  0  0
  -12.8996   -2.8613  -31.8494 O   0  0  0  0  0  0  0  0  0  0  0  0
  -14.8910   -1.8944  -32.5635 N   0  0  0  0  0  0  0  0  0  0  0  0
  -14.3360   -1.1960  -33.6461 C   0  0  2  0  0  0  0  0  0  0  0  0
  -13.0077   -1.7795  -34.1642 C   0  0  0  0  0  0  0  0  0  0  0  0
  -13.9261    0.1975  -33.1845 C   0  0  0  0  0  0  0  0  0  0  0  0
  -13.7660    0.4900  -31.8505 C   0  0  0  0  0  0  0  0  0  0  0  0
  -13.4004    1.7771  -31.4472 C   0  0  0  0  0  0  0  0  0  0  0  0
  -13.2072    2.7344  -32.4160 C   0  0  0  0  0  0  0  0  0  0  0  0
  -13.3730    2.4168  -33.7341 C   0  0  0  0  0  0  0  0  0  0  0  0
  -13.7245    1.1681  -34.0744 N   0  0  0  0  0  0  0  0  0  0  0  0
  -16.1381   -1.9817  -32.0923 C   0  0  0  0  0  0  0  0  0  0  0  0
  1  2  1  0
  2  3  1  0
  3  4  2  0
  4  5  1  0
  5  6  2  0
  6  7  1  0
  7  8  2  0
  8  9  1  0
  9 10  1  0
 10 11  1  0
 10 12  2  0
 12 13  1  0
 13 14  1  0
 14 15  1  0
  6 16  1  0
 16 17  2  0
 17 18  1  0
 18 19  1  0
 19 20  1  0
 20 21  2  0
 20 22  1  0
 22 23  1  0
 23 24  1  1
 23 25  1  0
 25 26  2  0
 26 27  1  0
 27 28  2  0
 28 29  1  0
 29 30  2  0
 22 31  1  0
  8  3  1  0
 14  9  2  0
 31 18  2  0
 31  5  1  0
 30 25  1  0
M  END
$$$$
