
     RDKit          3D

 31 33  0  0  0  0  0  0  0  0999 V2000
  -18.2596   31.3470  -20.4666 N   0  0  0  0  0  0  0  0  0  0  0  0
  -18.4232   32.7452  -20.7225 C   0  0  0  0  0  0  0  0  0  0  0  0
  -18.4838   33.2197  -21.9885 N   0  0  0  0  0  0  0  0  0  0  0  0
  -18.6355   34.5362  -22.2177 C   0  0  0  0  0  0  0  0  0  0  0  0
  -18.7334   35.2779  -23.3559 N   0  0  0  0  0  0  0  0  0  0  0  0
  -18.8852   36.5768  -23.0744 C   0  0  0  0  0  0  0  0  0  0  0  0
  -18.8909   36.7287  -21.6887 C   0  0  0  0  0  0  0  0  0  0  0  0
  -19.0197   38.0316  -21.0025 C   0  0  0  0  0  0  0  0  0  0  0  0
  -17.8658   38.9334  -21.3934 C   0  0  0  0  0  0  0  0  0  0  0  0
  -18.4048   40.2257  -21.9639 C   0  0  0  0  0  0  0  0  0  0  0  0
  -19.0588   40.2373  -23.1729 C   0  0  0  0  0  0  0  0  0  0  0  0
  -19.5293   41.4472  -23.6584 C   0  0  0  0  0  0  0  0  0  0  0  0
  -19.3688   42.6445  -22.9779 C   0  0  0  0  0  0  0  0  0  0  0  0
  -19.8781   43.8981  -23.5313 C   0  0  0  0  0  0  0  0  0  0  0  0
  -20.0625   43.9563  -24.7790 O   0  0  0  0  0  0  0  0  0  0  0  0
  -20.1736   45.0389  -22.7518 N   0  0  0  0  0  0  0  0  0  0  0  0
  -20.6589   46.3074  -23.3138 C   0  0  1  0  0  0  0  0  0  0  0  0
  -21.8476   46.7976  -22.5732 C   0  0  0  0  0  0  0  0  0  0  0  0
  -23.1264   46.5084  -23.3044 C   0  0  0  0  0  0  0  0  0  0  0  0
  -24.2065   47.2711  -22.6344 C   0  0  0  0  0  0  0  0  0  0  0  0
  -24.3262   48.4933  -22.9928 O   0  0  0  0  0  0  0  0  0  0  0  0
  -25.0663   46.7892  -21.6837 O   0  0  0  0  0  0  0  0  0  0  0  0
  -19.5871   47.3056  -23.3347 C   0  0  0  0  0  0  0  0  0  0  0  0
  -18.4406   47.1045  -22.8794 O   0  0  0  0  0  0  0  0  0  0  0  0
  -19.7691   48.6015  -23.8823 O   0  0  0  0  0  0  0  0  0  0  0  0
  -18.7068   42.5837  -21.7704 C   0  0  0  0  0  0  0  0  0  0  0  0
  -18.2170   41.3871  -21.2453 C   0  0  0  0  0  0  0  0  0  0  0  0
  -18.7357   35.4579  -21.1864 C   0  0  0  0  0  0  0  0  0  0  0  0
  -18.6737   34.9639  -19.9182 C   0  0  0  0  0  0  0  0  0  0  0  0
  -18.7644   35.7719  -18.9534 O   0  0  0  0  0  0  0  0  0  0  0  0
  -18.5211   33.6401  -19.7266 N   0  0  0  0  0  0  0  0  0  0  0  0
  1  2  1  0
  2  3  2  0
  3  4  1  0
  4  5  1  0
  5  6  1  0
  6  7  2  0
  7  8  1  0
  8  9  1  0
  9 10  1  0
 10 11  2  0
 11 12  1  0
 12 13  2  0
 13 14  1  0
 14 15  2  0
 14 16  1  0
 16 17  1  0
 17 18  1  1
 18 19  1  0
 19 20  1  0
 20 21  2  0
 20 22  1  0
 17 23  1  0
 23 24  2  0
 23 25  1  0
 13 26  1  0
 26 27  2  0
  7 28  1  0
 28 29  1  0
 29 30  2  0
 29 31  1  0
 31  2  1  0
 28  4  2  0
 27 10  1  0
M  END
$$$$
