
     RDKit          3D

 11  9  0  0  0  0  0  0  0  0999 V2000
  -20.0496   39.2297  -20.7749 C   0  0  0  0  0  0  0  0  0  0  0  0
  -19.4308   39.3224  -21.9348 C   0  0  0  0  0  0  0  0  0  0  0  0
  -18.2574   38.6525  -22.2229 O   0  0  0  0  0  0  0  0  0  0  0  0
  -17.8640   37.0926  -21.7202 P   0  0  0  0  0  5  0  0  0  0  0  0
  -17.4012   37.0259  -20.2955 O   0  0  0  0  0  0  0  0  0  0  0  0
  -16.6607   36.5006  -22.7684 O   0  0  0  0  0  1  0  0  0  0  0  0
  -19.2317   36.1028  -21.9607 O   0  0  0  0  0  0  0  0  0  0  0  0
  -19.9530   40.1550  -23.0144 C   0  0  0  0  0  0  0  0  0  0  0  0
  -21.0312   40.8156  -22.8516 O   0  0  0  0  0  0  0  0  0  0  0  0
  -19.3368   40.2820  -24.2477 O   0  0  0  0  0  0  0  0  0  0  0  0
  -19.1862   38.6077  -22.1484 K   0  0  0  0  0 15  0  0  0  0  0  0
  1  2  2  0
  2  3  1  0
  3  4  1  0
  4  5  2  0
  4  6  1  0
  4  7  1  0
  2  8  1  0
  8  9  2  0
  8 10  1  0
M  CHG  2   6  -1  11   1
M  END
$$$$
