
     RDKit          3D

 23 23  0  0  0  0  0  0  0  0999 V2000
  -20.4652   33.4775  -22.1360 C   0  0  0  0  0  0  0  0  0  0  0  0
  -20.1167   34.4511  -21.0110 C   0  0  0  0  0  0  0  0  0  0  0  0
  -20.2608   33.7332  -19.6889 C   0  0  0  0  0  0  0  0  0  0  0  0
  -18.6956   34.9281  -21.1961 C   0  0  0  0  0  0  0  0  0  0  0  0
  -18.6087   36.0529  -22.2048 C   0  0  2  0  0  0  0  0  0  0  0  0
  -19.3265   37.2205  -21.7330 N   0  0  0  0  0  0  0  0  0  0  0  0
  -18.6822   38.3843  -21.2453 C   0  0  0  0  0  0  0  0  0  0  0  0
  -17.4316   38.4070  -21.1358 O   0  0  0  0  0  0  0  0  0  0  0  0
  -19.4588   39.6024  -20.8522 C   0  0  0  0  0  0  0  0  0  0  0  0
  -18.6294   40.5896  -20.2326 N   0  0  0  0  0  0  0  0  0  0  0  0
  -18.4958   41.8898  -20.7921 C   0  0  0  0  0  0  0  0  0  0  0  0
  -19.0895   42.1762  -21.8633 O   0  0  0  0  0  0  0  0  0  0  0  0
  -17.6656   42.8406  -20.0870 C   0  0  0  0  0  0  0  0  0  0  0  0
  -16.4279   43.1565  -20.5875 C   0  0  0  0  0  0  0  0  0  0  0  0
  -15.6385   44.0698  -19.9039 C   0  0  0  0  0  0  0  0  0  0  0  0
  -14.0662   44.4424  -20.5801 Cl  0  0  0  0  0  0  0  0  0  0  0  0
  -16.1026   44.6405  -18.7453 C   0  0  0  0  0  0  0  0  0  0  0  0
  -17.3387   44.3397  -18.2248 C   0  0  0  0  0  0  0  0  0  0  0  0
  -18.1181   43.4181  -18.9278 C   0  0  0  0  0  0  0  0  0  0  0  0
  -19.6986   43.0003  -18.3088 Cl  0  0  0  0  0  0  0  0  0  0  0  0
  -19.2426   35.6243  -23.5935 B   0  0  0  0  0  0  0  0  0  0  0  0
  -18.5026   34.6624  -24.4048 O   0  0  0  0  0  0  0  0  0  0  0  0
  -20.6963   35.6393  -23.7364 O   0  0  0  0  0  0  0  0  0  0  0  0
  1  2  1  0
  2  3  1  0
  2  4  1  0
  5  4  1  1
  5  6  1  0
  6  7  1  0
  7  8  2  0
  7  9  1  0
  9 10  1  0
 10 11  1  0
 11 12  2  0
 11 13  1  0
 13 14  2  0
 14 15  1  0
 15 16  1  0
 15 17  2  0
 17 18  1  0
 18 19  2  0
 19 20  1  0
  5 21  1  0
 21 22  1  0
 21 23  1  0
 19 13  1  0
M  END
$$$$
