
     RDKit          3D

 28 31  0  0  0  0  0  0  0  0999 V2000
  -29.8578   25.8026  -39.6221 C   0  0  0  0  0  0  0  0  0  0  0  0
  -28.9249   25.1814  -38.7782 O   0  0  0  0  0  0  0  0  0  0  0  0
  -29.2989   24.5039  -37.6348 C   0  0  0  0  0  0  0  0  0  0  0  0
  -30.6484   24.4792  -37.3089 C   0  0  0  0  0  0  0  0  0  0  0  0
  -31.0393   23.8120  -36.1781 C   0  0  0  0  0  0  0  0  0  0  0  0
  -30.1241   23.1872  -35.3920 C   0  0  0  0  0  0  0  0  0  0  0  0
  -28.7985   23.2305  -35.7420 C   0  0  0  0  0  0  0  0  0  0  0  0
  -28.3254   23.8951  -36.8861 C   0  0  0  0  0  0  0  0  0  0  0  0
  -26.9150   23.8837  -37.1686 C   0  0  0  0  0  0  0  0  0  0  0  0
  -26.3925   22.7701  -37.5393 O   0  0  0  0  0  0  0  0  0  0  0  0
  -25.9934   24.9319  -37.1001 N   0  0  0  0  0  0  0  0  0  0  0  0
  -24.6558   24.8682  -37.6248 C   0  0  0  0  0  0  0  0  0  0  0  0
  -24.5454   24.5503  -38.9659 C   0  0  0  0  0  0  0  0  0  0  0  0
  -23.3266   24.4711  -39.5612 C   0  0  0  0  0  0  0  0  0  0  0  0
  -22.1993   24.7101  -38.8189 C   0  0  0  0  0  0  0  0  0  0  0  0
  -22.2865   25.0242  -37.4992 C   0  0  0  0  0  0  0  0  0  0  0  0
  -23.5296   25.1057  -36.8891 C   0  0  0  0  0  0  0  0  0  0  0  0
  -23.6615   25.4353  -35.5199 N   0  0  0  0  0  0  0  0  0  0  0  0
  -22.7004   25.1168  -34.5004 C   0  0  0  0  0  0  0  0  0  0  0  0
  -22.7806   26.3083  -33.5605 C   0  0  0  0  0  0  0  0  0  0  0  0
  -24.0596   27.0156  -33.8764 C   0  0  0  0  0  0  0  0  0  0  0  0
  -24.7451   26.1345  -34.8774 C   0  0  0  0  0  0  0  0  0  0  0  0
  -21.1735   24.5507  -39.7040 N   0  0  0  0  0  0  0  0  0  0  0  0
  -19.7853   24.7139  -39.3331 C   0  0  0  0  0  0  0  0  0  0  0  0
  -21.6819   24.2335  -40.9061 C   0  0  0  0  0  0  0  0  0  0  0  0
  -21.0009   24.0205  -41.9377 O   0  0  0  0  0  0  0  0  0  0  0  0
  -23.0106   24.1783  -40.8433 N   0  0  0  0  0  0  0  0  0  0  0  0
  -23.9565   23.8685  -41.9185 C   0  0  0  0  0  0  0  0  0  0  0  0
  1  2  1  0
  2  3  1  0
  3  4  2  0
  4  5  1  0
  5  6  2  0
  6  7  1  0
  7  8  2  0
  8  9  1  0
  9 10  2  0
  9 11  1  0
 11 12  1  0
 12 13  2  0
 13 14  1  0
 14 15  2  0
 15 16  1  0
 16 17  2  0
 17 18  1  0
 18 19  1  0
 19 20  1  0
 20 21  1  0
 21 22  1  0
 15 23  1  0
 23 24  1  0
 23 25  1  0
 25 26  2  0
 25 27  1  0
 27 28  1  0
  8  3  1  0
 17 12  1  0
 22 18  1  0
 27 14  1  0
M  END
$$$$
