
     RDKit          3D

 25 27  0  0  0  0  0  0  0  0999 V2000
  -30.7072   24.6378  -36.3435 C   0  0  0  0  0  0  0  0  0  0  0  0
  -29.2373   24.3792  -36.5648 C   0  0  0  0  0  0  0  0  0  0  0  0
  -28.6100   24.7634  -37.7594 C   0  0  0  0  0  0  0  0  0  0  0  0
  -27.2304   24.5848  -37.9215 C   0  0  0  0  0  0  0  0  0  0  0  0
  -26.4870   24.9803  -39.1287 C   0  0  0  0  0  0  0  0  0  0  0  0
  -26.5151   24.0136  -36.8550 C   0  0  0  0  0  0  0  0  0  0  0  0
  -25.1179   23.7894  -36.9190 N   0  0  0  0  0  0  0  0  0  0  0  0
  -24.1329   24.7014  -36.4231 C   0  0  0  0  0  0  0  0  0  0  0  0
  -22.8288   24.3210  -36.4491 C   0  0  0  0  0  0  0  0  0  0  0  0
  -21.8179   25.2145  -36.0305 C   0  0  0  0  0  0  0  0  0  0  0  0
  -22.3178   26.4089  -35.6392 N   0  0  0  0  0  0  0  0  0  0  0  0
  -23.5692   26.7837  -35.6168 C   0  0  0  0  0  0  0  0  0  0  0  0
  -23.9227   28.1402  -35.2644 N   0  0  0  0  0  0  0  0  0  0  0  0
  -25.3041   28.5202  -35.3652 C   0  0  0  0  0  0  0  0  0  0  0  0
  -26.1456   27.8563  -34.5139 C   0  0  0  0  0  0  0  0  0  0  0  0
  -27.4871   28.1933  -34.5575 C   0  0  0  0  0  0  0  0  0  0  0  0
  -28.0307   29.1183  -35.3642 C   0  0  0  0  0  0  0  0  0  0  0  0
  -29.4431   29.4871  -35.3103 C   0  0  0  0  0  0  0  0  0  0  0  0
  -30.6035   29.7906  -35.2496 N   0  0  0  0  0  0  0  0  0  0  0  0
  -27.1412   29.7760  -36.2367 C   0  0  0  0  0  0  0  0  0  0  0  0
  -25.7688   29.4812  -36.2409 C   0  0  0  0  0  0  0  0  0  0  0  0
  -24.5566   25.9329  -36.0082 N   0  0  0  0  0  0  0  0  0  0  0  0
  -27.1761   23.6490  -35.7092 C   0  0  0  0  0  0  0  0  0  0  0  0
  -26.3543   23.0218  -34.6172 C   0  0  0  0  0  0  0  0  0  0  0  0
  -28.5229   23.8233  -35.5501 C   0  0  0  0  0  0  0  0  0  0  0  0
  1  2  1  0
  2  3  2  0
  3  4  1  0
  4  5  1  0
  4  6  2  0
  6  7  1  0
  7  8  1  0
  8  9  2  0
  9 10  1  0
 10 11  2  0
 11 12  1  0
 12 13  1  0
 13 14  1  0
 14 15  2  0
 15 16  1  0
 16 17  2  0
 17 18  1  0
 18 19  3  0
 17 20  1  0
 20 21  2  0
 12 22  2  0
  6 23  1  0
 23 24  1  0
 23 25  2  0
 25  2  1  0
 22  8  1  0
 21 14  1  0
M  END
$$$$
