
     RDKit          3D

 13 13  0  0  0  0  0  0  0  0999 V2000
  -21.5947   39.0255  -23.4983 N   0  0  0  0  0  0  0  0  0  0  0  0
  -20.1592   39.1910  -23.4498 C   0  0  1  0  0  0  0  0  0  0  0  0
  -19.5446   37.8626  -23.8353 C   0  0  0  0  0  0  0  0  0  0  0  0
  -19.0827   37.1624  -22.6522 N   0  0  0  0  0  0  0  0  0  0  0  0
  -18.0040   37.3726  -21.9428 O   0  0  0  0  0  0  0  0  0  0  0  0
  -17.9501   36.5188  -20.9461 C   0  0  0  0  0  0  0  0  0  0  0  0
  -17.0408   36.4312  -20.0537 O   0  0  0  0  0  0  0  0  0  0  0  0
  -19.0260   35.7121  -20.9896 N   0  0  0  0  0  0  0  0  0  0  0  0
  -19.7311   36.1185  -22.0581 C   0  0  0  0  0  0  0  0  0  0  0  0
  -20.8189   35.5913  -22.4228 O   0  0  0  0  0  0  0  0  0  0  0  0
  -19.8094   40.2608  -24.4177 C   0  0  0  0  0  0  0  0  0  0  0  0
  -20.4247   40.2599  -25.5153 O   0  0  0  0  0  0  0  0  0  0  0  0
  -18.8549   41.2341  -24.1617 O   0  0  0  0  0  0  0  0  0  0  0  0
  2  1  1  6
  2  3  1  0
  3  4  1  0
  4  5  1  0
  5  6  1  0
  6  7  2  0
  6  8  1  0
  8  9  1  0
  9 10  2  0
  2 11  1  0
 11 12  2  0
 11 13  1  0
  9  4  1  0
M  END
$$$$
