
     RDKit          3D

 22 24  0  0  0  0  0  0  0  0999 V2000
   -8.1881   11.9901  -48.9748 C   0  0  0  0  0  0  0  0  0  0  0  0
   -7.4549   12.3952  -47.8467 O   0  0  0  0  0  0  0  0  0  0  0  0
   -6.8291   11.5219  -46.9719 C   0  0  0  0  0  0  0  0  0  0  0  0
   -7.2081   10.2164  -46.7599 C   0  0  0  0  0  0  0  0  0  0  0  0
   -6.5570    9.3736  -45.8760 C   0  0  0  0  0  0  0  0  0  0  0  0
   -6.9641    8.0890  -45.6972 N   0  0  0  0  0  0  0  0  0  0  0  0
   -6.3486    7.2564  -44.8481 C   0  0  0  0  0  0  0  0  0  0  0  0
   -5.2973    7.7111  -44.1551 N   0  0  0  0  0  0  0  0  0  0  0  0
   -4.8401    8.9829  -44.2871 C   0  0  0  0  0  0  0  0  0  0  0  0
   -3.7349    9.4128  -43.5385 N   0  0  0  0  0  0  0  0  0  0  0  0
   -3.2377    8.6651  -42.4209 C   0  0  0  0  0  0  0  0  0  0  0  0
   -1.8925    8.7676  -42.0704 C   0  0  0  0  0  0  0  0  0  0  0  0
   -1.3679    8.0542  -41.0209 C   0  0  0  0  0  0  0  0  0  0  0  0
   -2.1638    7.2131  -40.2830 C   0  0  0  0  0  0  0  0  0  0  0  0
   -3.4971    7.0877  -40.6021 C   0  0  0  0  0  0  0  0  0  0  0  0
   -4.5256    6.0195  -39.6715 Cl  0  0  0  0  0  0  0  0  0  0  0  0
   -4.0168    7.8200  -41.6731 C   0  0  0  0  0  0  0  0  0  0  0  0
   -5.4761    9.8512  -45.1679 C   0  0  0  0  0  0  0  0  0  0  0  0
   -5.0751   11.1500  -45.3592 C   0  0  0  0  0  0  0  0  0  0  0  0
   -5.7503   11.9853  -46.2602 C   0  0  0  0  0  0  0  0  0  0  0  0
   -5.2870   13.3007  -46.4070 O   0  0  0  0  0  0  0  0  0  0  0  0
   -4.1418   13.7494  -45.6936 C   0  0  0  0  0  0  0  0  0  0  0  0
  1  2  1  0
  2  3  1  0
  3  4  2  0
  4  5  1  0
  5  6  2  0
  6  7  1  0
  7  8  2  0
  8  9  1  0
  9 10  1  0
 10 11  1  0
 11 12  2  0
 12 13  1  0
 13 14  2  0
 14 15  1  0
 15 16  1  0
 15 17  2  0
  9 18  2  0
 18 19  1  0
 19 20  2  0
 20 21  1  0
 21 22  1  0
 20  3  1  0
 18  5  1  0
 17 11  1  0
M  END
$$$$
