
     RDKit          3D

 32 35  0  0  0  0  0  0  0  0999 V2000
  -35.6342    8.5635  -21.8670 C   0  0  0  0  0  0  0  0  0  0  0  0
  -35.5822    9.8489  -21.0382 C   0  0  0  0  0  0  0  0  0  0  0  0
  -34.9198    9.5746  -19.7257 C   0  0  0  0  0  0  0  0  0  0  0  0
  -34.7730    8.4361  -19.2673 O   0  0  0  0  0  0  0  0  0  0  0  0
  -34.4604   10.6189  -19.0069 O   0  0  0  0  0  0  0  0  0  0  0  0
  -33.2653   10.8749  -18.3779 C   0  0  2  0  0  0  0  0  0  0  0  0
  -32.8578    9.9888  -17.2818 C   0  0  0  0  0  0  0  0  0  0  0  0
  -31.7220   10.1994  -16.8238 O   0  0  0  0  0  0  0  0  0  0  0  0
  -33.5863    8.8944  -16.6391 C   0  0  0  0  0  0  0  0  0  0  0  0
  -32.8013    8.4184  -15.0769 Cl  0  0  0  0  0  0  0  0  0  0  0  0
  -33.5337   12.2285  -17.6433 C   0  0  1  0  0  0  0  0  0  0  0  0
  -34.0446   12.0237  -16.2798 C   0  0  0  0  0  0  0  0  0  0  0  0
  -32.2048   12.9674  -17.7157 C   0  0  0  0  0  0  0  0  0  0  0  0
  -31.9786   12.7821  -19.1594 C   0  0  1  0  0  0  0  0  0  0  0  0
  -30.6501   13.1408  -19.7337 C   0  0  2  0  0  0  0  0  0  0  0  0
  -30.2387   14.5384  -19.2935 C   0  0  0  0  0  0  0  0  0  0  0  0
  -28.9325   14.8560  -19.9767 C   0  0  0  0  0  0  0  0  0  0  0  0
  -29.0686   14.6795  -21.4562 C   0  0  0  0  0  0  0  0  0  0  0  0
  -28.7554   15.6851  -22.2186 C   0  0  0  0  0  0  0  0  0  0  0  0
  -28.8657   15.5764  -23.6599 C   0  0  0  0  0  0  0  0  0  0  0  0
  -28.5505   16.5774  -24.3498 O   0  0  0  0  0  0  0  0  0  0  0  0
  -29.3337   14.3150  -24.2024 C   0  0  0  0  0  0  0  0  0  0  0  0
  -29.6471   13.3059  -23.4051 C   0  0  0  0  0  0  0  0  0  0  0  0
  -29.5606   13.3468  -21.9287 C   0  0  1  0  0  0  0  0  0  0  0  0
  -28.4479   12.3782  -21.5100 C   0  0  0  0  0  0  0  0  0  0  0  0
  -30.8626   13.0962  -21.2265 C   0  0  2  0  0  0  0  0  0  0  0  0
  -31.5951   14.2817  -21.4809 F   0  0  0  0  0  0  0  0  0  0  0  0
  -31.6661   11.9532  -21.7049 C   0  0  1  0  0  0  0  0  0  0  0  0
  -30.8100   11.0612  -22.3978 O   0  0  0  0  0  0  0  0  0  0  0  0
  -32.4590   11.1260  -20.7792 C   0  0  0  0  0  0  0  0  0  0  0  0
  -32.1502   11.2906  -19.3146 C   0  0  2  0  0  0  0  0  0  0  0  0
  -30.9366   10.4816  -19.0172 C   0  0  0  0  0  0  0  0  0  0  0  0
  1  2  1  0
  2  3  1  0
  3  4  2  0
  3  5  1  0
  6  5  1  6
  6  7  1  0
  7  8  2  0
  7  9  1  0
  9 10  1  0
  6 11  1  0
 11 12  1  1
 11 13  1  0
 14 13  1  1
 14 15  1  0
 15 16  1  1
 16 17  1  0
 17 18  1  0
 18 19  2  0
 19 20  1  0
 20 21  2  0
 20 22  1  0
 22 23  2  0
 23 24  1  0
 24 25  1  1
 24 26  1  0
 26 27  1  6
 26 28  1  0
 28 29  1  1
 28 30  1  0
 30 31  1  0
 31 32  1  1
 31  6  1  0
 31 14  1  0
 26 15  1  0
 24 18  1  0
M  END
$$$$
