
     RDKit          3D

 27 30  0  0  0  0  0  0  0  0999 V2000
  -10.3460   44.6008  -17.1533 O   0  0  0  0  0  0  0  0  0  0  0  0
  -11.2444   44.7081  -18.0079 C   0  0  0  0  0  0  0  0  0  0  0  0
  -11.0578   44.3938  -19.4684 C   0  0  0  0  0  0  0  0  0  0  0  0
  -12.0986   43.3898  -19.8742 C   0  0  0  0  0  0  0  0  0  0  0  0
  -13.4473   43.8695  -19.4985 C   0  0  0  0  0  0  0  0  0  0  0  0
  -14.5254   43.4734  -20.2397 C   0  0  0  0  0  0  0  0  0  0  0  0
  -15.8378   43.8668  -19.9448 C   0  0  0  0  0  0  0  0  0  0  0  0
  -16.7948   43.3913  -20.7669 O   0  0  0  0  0  0  0  0  0  0  0  0
  -16.9475   42.1908  -21.4657 C   0  0  0  0  0  0  0  0  0  0  0  0
  -17.9448   41.2967  -20.8220 C   0  0  0  0  0  0  0  0  0  0  0  0
  -18.3162   40.0255  -21.4556 C   0  0  0  0  0  0  0  0  0  0  0  0
  -19.7033   39.7393  -21.8139 C   0  0  0  0  0  0  0  0  0  0  0  0
  -20.5954   39.1259  -20.8296 C   0  0  0  0  0  0  0  0  0  0  0  0
  -21.0620   39.5550  -19.6605 N   0  0  0  0  0  0  0  0  0  0  0  0
  -21.8454   38.6553  -19.1120 N   0  0  0  0  0  0  0  0  0  0  0  0
  -21.8753   37.6377  -19.9495 N   0  0  0  0  0  0  0  0  0  0  0  0
  -21.1364   37.8733  -21.0018 N   0  0  0  0  0  0  0  0  0  0  0  0
  -20.8885   37.0547  -22.1384 C   0  0  0  0  0  0  0  0  0  0  0  0
  -22.1568   36.3273  -22.6046 C   0  0  0  0  0  0  0  0  0  0  0  0
  -21.7769   35.6295  -23.8993 C   0  0  0  0  0  0  0  0  0  0  0  0
  -20.7086   34.6064  -23.7049 C   0  0  0  0  0  0  0  0  0  0  0  0
  -19.5460   35.0695  -22.8875 C   0  0  0  0  0  0  0  0  0  0  0  0
  -19.9044   35.9715  -21.7574 C   0  0  0  0  0  0  0  0  0  0  0  0
  -16.0046   44.6859  -18.8538 C   0  0  0  0  0  0  0  0  0  0  0  0
  -14.9095   45.0813  -18.1117 C   0  0  0  0  0  0  0  0  0  0  0  0
  -13.6267   44.6883  -18.4131 C   0  0  0  0  0  0  0  0  0  0  0  0
  -12.5302   45.1515  -17.6072 N   0  0  0  0  0  0  0  0  0  0  0  0
  1  2  2  0
  2  3  1  0
  3  4  1  0
  4  5  1  0
  5  6  2  0
  6  7  1  0
  7  8  1  0
  8  9  1  0
  9 10  1  0
 10 11  1  0
 11 12  1  0
 12 13  1  0
 13 14  2  0
 14 15  1  0
 15 16  2  0
 16 17  1  0
 17 18  1  0
 18 19  1  0
 19 20  1  0
 20 21  1  0
 21 22  1  0
 22 23  1  0
  7 24  2  0
 24 25  1  0
 25 26  2  0
 26 27  1  0
 27  2  1  0
 26  5  1  0
 17 13  1  0
 23 18  1  0
M  END
$$$$
