
     RDKit          3D

 31 33  0  0  0  0  0  0  0  0999 V2000
  -22.9657    0.8677  -30.6402 C   0  0  0  0  0  0  0  0  0  0  0  0
  -22.4284    1.8284  -31.5725 N   0  0  0  0  0  0  0  0  0  0  0  0
  -21.0589    1.6918  -31.9578 C   0  0  0  0  0  0  0  0  0  0  0  0
  -20.5317    2.5839  -32.8118 N   0  0  0  0  0  0  0  0  0  0  0  0
  -19.2557    2.4836  -33.1911 C   0  0  0  0  0  0  0  0  0  0  0  0
  -18.4726    1.4583  -32.7038 C   0  0  0  0  0  0  0  0  0  0  0  0
  -17.1582    1.3648  -33.1018 C   0  0  0  0  0  0  0  0  0  0  0  0
  -16.3895    0.3422  -32.6114 C   0  0  0  0  0  0  0  0  0  0  0  0
  -15.0027    0.2085  -33.0052 C   0  0  0  0  0  0  0  0  0  0  0  0
  -14.5871   -0.7071  -33.9335 C   0  0  0  0  0  0  0  0  0  0  0  0
  -13.2492   -0.8561  -34.3303 C   0  0  0  0  0  0  0  0  0  0  0  0
  -12.9877   -1.8332  -35.3168 N   0  0  0  0  0  0  0  0  0  0  0  0
  -13.8033   -2.2288  -36.3777 C   0  0  0  0  0  0  0  0  0  0  0  0
  -14.8565   -1.6469  -36.6243 O   0  0  0  0  0  0  0  0  0  0  0  0
  -13.4408   -3.3384  -37.2275 N   0  0  0  0  0  0  0  0  0  0  0  0
  -12.8355   -3.1226  -38.5013 C   0  0  0  0  0  0  0  0  0  0  0  0
  -13.7720   -3.5066  -39.6010 C   0  0  0  0  0  0  0  0  0  0  0  0
  -13.1179   -4.5905  -40.4613 C   0  0  0  0  0  0  0  0  0  0  0  0
  -12.0032   -3.9258  -41.2283 C   0  0  0  0  0  0  0  0  0  0  0  0
  -12.6296   -5.6558  -39.5196 C   0  0  0  0  0  0  0  0  0  0  0  0
  -14.1216   -5.2038  -41.4167 C   0  0  0  0  0  0  0  0  0  0  0  0
  -12.3588   -0.0192  -33.7288 C   0  0  0  0  0  0  0  0  0  0  0  0
  -11.0378   -0.0340  -34.0306 F   0  0  0  0  0  0  0  0  0  0  0  0
  -12.7851    0.9249  -32.7715 C   0  0  0  0  0  0  0  0  0  0  0  0
  -14.0999    1.0444  -32.4058 C   0  0  0  0  0  0  0  0  0  0  0  0
  -14.4765    2.0653  -31.3870 C   0  0  0  0  0  0  0  0  0  0  0  0
  -16.9134   -0.5704  -31.7433 C   0  0  0  0  0  0  0  0  0  0  0  0
  -16.1501   -1.7112  -31.1628 C   0  0  0  0  0  0  0  0  0  0  0  0
  -18.2038   -0.4437  -31.3787 N   0  0  0  0  0  0  0  0  0  0  0  0
  -19.0000    0.5348  -31.8263 C   0  0  0  0  0  0  0  0  0  0  0  0
  -20.2855    0.6975  -31.4904 N   0  0  0  0  0  0  0  0  0  0  0  0
  1  2  1  0
  2  3  1  0
  3  4  2  0
  4  5  1  0
  5  6  2  0
  6  7  1  0
  7  8  2  0
  8  9  1  0
  9 10  2  0
 10 11  1  0
 11 12  1  0
 12 13  1  0
 13 14  2  0
 13 15  1  0
 15 16  1  0
 16 17  1  0
 17 18  1  0
 18 19  1  0
 18 20  1  0
 18 21  1  0
 11 22  2  0
 22 23  1  0
 22 24  1  0
 24 25  2  0
 25 26  1  0
  8 27  1  0
 27 28  1  0
 27 29  2  0
 29 30  1  0
 30 31  2  0
 31  3  1  0
 30  6  1  0
 25  9  1  0
M  END
$$$$
