
     RDKit          3D

 25 28  0  0  0  0  0  0  0  0999 V2000
  -18.6887   40.6710  -20.5905 O   0  0  0  0  0  0  0  0  0  0  0  0
  -17.9834   41.2083  -19.6623 C   0  0  0  0  0  0  0  0  0  0  0  0
  -18.3088   40.8992  -18.3701 O   0  0  0  0  0  0  0  0  0  0  0  0
  -16.9019   42.1043  -20.0683 C   0  0  2  0  0  0  0  0  0  0  0  0
  -15.8144   42.3255  -19.0712 C   0  0  0  0  0  0  0  0  0  0  0  0
  -14.5950   42.9532  -19.5855 C   0  0  0  0  0  0  0  0  0  0  0  0
  -13.8688   42.7987  -20.7327 C   0  0  0  0  0  0  0  0  0  0  0  0
  -12.8269   43.6436  -20.7655 N   0  0  0  0  0  0  0  0  0  0  0  0
  -12.8524   44.3785  -19.6223 C   0  0  0  0  0  0  0  0  0  0  0  0
  -12.0191   45.3788  -19.1716 C   0  0  0  0  0  0  0  0  0  0  0  0
  -12.2774   45.9760  -17.9581 C   0  0  0  0  0  0  0  0  0  0  0  0
  -13.3502   45.5910  -17.1910 C   0  0  0  0  0  0  0  0  0  0  0  0
  -14.1614   44.5888  -17.6707 C   0  0  0  0  0  0  0  0  0  0  0  0
  -13.9467   43.9617  -18.8759 C   0  0  0  0  0  0  0  0  0  0  0  0
  -17.4421   43.3865  -20.4493 N   0  0  0  0  0  0  0  0  0  0  0  0
  -16.9672   44.3114  -21.4162 C   0  0  0  0  0  0  0  0  0  0  0  0
  -15.9678   44.1969  -22.1747 O   0  0  0  0  0  0  0  0  0  0  0  0
  -17.8391   45.4961  -21.4254 C   0  0  0  0  0  0  0  0  0  0  0  0
  -17.8608   46.6763  -22.1329 C   0  0  0  0  0  0  0  0  0  0  0  0
  -18.8541   47.6357  -21.8978 C   0  0  0  0  0  0  0  0  0  0  0  0
  -19.8405   47.4357  -20.9567 C   0  0  0  0  0  0  0  0  0  0  0  0
  -19.8024   46.2552  -20.2614 C   0  0  0  0  0  0  0  0  0  0  0  0
  -18.8379   45.2903  -20.4683 C   0  0  0  0  0  0  0  0  0  0  0  0
  -18.5865   43.9850  -19.8708 C   0  0  0  0  0  0  0  0  0  0  0  0
  -19.3404   43.5108  -18.9541 O   0  0  0  0  0  0  0  0  0  0  0  0
  1  2  2  0
  2  3  1  0
  2  4  1  0
  4  5  1  1
  5  6  1  0
  6  7  2  0
  7  8  1  0
  8  9  1  0
  9 10  2  0
 10 11  1  0
 11 12  2  0
 12 13  1  0
 13 14  2  0
  4 15  1  0
 15 16  1  0
 16 17  2  0
 16 18  1  0
 18 19  2  0
 19 20  1  0
 20 21  2  0
 21 22  1  0
 22 23  2  0
 23 24  1  0
 24 25  2  0
 14  6  1  0
 24 15  1  0
 14  9  1  0
 23 18  1  0
M  END
$$$$
