
     RDKit          3D

 10  9  0  0  0  0  0  0  0  0999 V2000
  -11.7955   12.9029  -27.5883 C   0  0  0  0  0  0  0  0  0  0  0  0
  -13.0696   12.0684  -27.7010 C   0  0  0  0  0  0  0  0  0  0  0  0
  -13.8777   12.4893  -28.8815 C   0  0  0  0  0  0  0  0  0  0  0  0
  -15.0587   13.3610  -28.4994 C   0  0  0  0  0  0  0  0  0  0  0  0
  -15.9139   13.6817  -29.6976 C   0  0  0  0  0  0  0  0  0  0  0  0
  -17.1507   14.4672  -29.3469 C   0  0  0  0  0  0  0  0  0  0  0  0
  -18.0078   14.7815  -30.5244 C   0  0  0  0  0  0  0  0  0  0  0  0
  -18.6819   16.0396  -30.3024 N   0  0  0  0  0  0  0  0  0  0  0  0
  -18.3321   17.2328  -30.9839 C   0  0  0  0  0  0  0  0  0  0  0  0
  -18.3455   17.3154  -32.2382 O   0  0  0  0  0  0  0  0  0  0  0  0
  1  2  1  0
  2  3  1  0
  3  4  1  0
  4  5  1  0
  5  6  1  0
  6  7  1  0
  7  8  1  0
  8  9  1  0
  9 10  2  0
M  END
$$$$
