
     RDKit          3D

 21 23  0  0  0  0  0  0  0  0999 V2000
  -17.5528   36.6806  -21.6781 O   0  0  0  0  0  0  0  0  0  0  0  0
  -18.1796   37.1930  -22.6057 C   0  0  0  0  0  0  0  0  0  0  0  0
  -18.0661   36.5067  -23.8290 O   0  0  0  0  0  0  0  0  0  0  0  0
  -18.9781   38.3920  -22.5067 C   0  0  0  0  0  0  0  0  0  0  0  0
  -18.3061   39.6261  -22.3395 C   0  0  0  0  0  0  0  0  0  0  0  0
  -18.9960   40.8077  -22.2377 C   0  0  0  0  0  0  0  0  0  0  0  0
  -18.3365   42.0992  -22.0646 C   0  0  0  0  0  0  0  0  0  0  0  0
  -18.8660   43.2382  -22.6381 C   0  0  0  0  0  0  0  0  0  0  0  0
  -18.2748   44.4730  -22.4983 C   0  0  0  0  0  0  0  0  0  0  0  0
  -17.1147   44.6239  -21.7702 C   0  0  0  0  0  0  0  0  0  0  0  0
  -16.2866   46.3484  -21.5734 Br  0  0  0  0  0  0  0  0  0  0  0  0
  -16.5668   43.5003  -21.1878 C   0  0  0  0  0  0  0  0  0  0  0  0
  -17.1760   42.2644  -21.3392 C   0  0  0  0  0  0  0  0  0  0  0  0
  -20.3376   40.7825  -22.2992 N   0  0  0  0  0  0  0  0  0  0  0  0
  -21.0387   39.6501  -22.4564 C   0  0  0  0  0  0  0  0  0  0  0  0
  -22.4328   39.7006  -22.5117 C   0  0  0  0  0  0  0  0  0  0  0  0
  -23.0954   38.5135  -22.6733 C   0  0  0  0  0  0  0  0  0  0  0  0
  -22.4511   37.3254  -22.7778 C   0  0  0  0  0  0  0  0  0  0  0  0
  -23.3487   35.8016  -22.9873 Cl  0  0  0  0  0  0  0  0  0  0  0  0
  -21.0741   37.2899  -22.7215 C   0  0  0  0  0  0  0  0  0  0  0  0
  -20.3421   38.4373  -22.5614 C   0  0  0  0  0  0  0  0  0  0  0  0
  1  2  2  0
  2  3  1  0
  2  4  1  0
  4  5  2  0
  5  6  1  0
  6  7  1  0
  7  8  2  0
  8  9  1  0
  9 10  2  0
 10 11  1  0
 10 12  1  0
 12 13  2  0
  6 14  2  0
 14 15  1  0
 15 16  2  0
 16 17  1  0
 17 18  2  0
 18 19  1  0
 18 20  1  0
 20 21  2  0
 21  4  1  0
 13  7  1  0
 21 15  1  0
M  END
$$$$
