
     RDKit          3D

 38 43  0  0  0  0  0  0  0  0999 V2000
  -18.4473   43.7711  -19.6855 O   0  0  0  0  0  0  0  0  0  0  0  0
  -17.6490   42.8013  -19.8757 C   0  0  0  0  0  0  0  0  0  0  0  0
  -18.1202   41.6279  -20.5742 C   0  0  0  0  0  0  0  0  0  0  0  0
  -17.9242   41.5352  -21.9577 C   0  0  0  0  0  0  0  0  0  0  0  0
  -17.3106   42.5554  -22.6194 F   0  0  0  0  0  0  0  0  0  0  0  0
  -18.3224   40.4566  -22.6909 C   0  0  0  0  0  0  0  0  0  0  0  0
  -18.9393   39.4150  -22.0660 C   0  0  0  0  0  0  0  0  0  0  0  0
  -19.1596   39.4487  -20.7037 C   0  0  0  0  0  0  0  0  0  0  0  0
  -19.8040   38.3282  -20.1116 N   0  0  0  0  0  0  0  0  0  0  0  0
  -19.9128   36.8054  -20.8836 S   0  0  0  0  0  6  0  0  0  0  0  0
  -18.7746   35.9206  -20.4675 O   0  0  0  0  0  0  0  0  0  0  0  0
  -21.1850   36.1507  -20.4170 O   0  0  0  0  0  0  0  0  0  0  0  0
  -19.8635   36.9528  -22.5819 N   0  0  0  0  0  0  0  0  0  0  0  0
  -18.6529   36.4111  -23.1145 C   0  0  0  0  0  0  0  0  0  0  0  0
  -18.9761   35.0043  -23.5040 C   0  0  0  0  0  0  0  0  0  0  0  0
  -20.4243   35.0469  -23.8664 C   0  0  1  0  0  0  0  0  0  0  0  0
  -21.1180   33.9586  -23.3578 F   0  0  0  0  0  0  0  0  0  0  0  0
  -20.9504   36.3111  -23.2504 C   0  0  0  0  0  0  0  0  0  0  0  0
  -18.7446   40.5510  -19.9994 C   0  0  0  0  0  0  0  0  0  0  0  0
  -18.9589   40.5354  -18.6634 F   0  0  0  0  0  0  0  0  0  0  0  0
  -16.2768   42.8607  -19.3992 C   0  0  0  0  0  0  0  0  0  0  0  0
  -15.2512   41.9535  -19.4443 C   0  0  0  0  0  0  0  0  0  0  0  0
  -14.1523   42.4664  -18.8246 N   0  0  0  0  0  0  0  0  0  0  0  0
  -14.4729   43.7000  -18.3830 C   0  0  0  0  0  0  0  0  0  0  0  0
  -13.7685   44.6529  -17.7054 N   0  0  0  0  0  0  0  0  0  0  0  0
  -14.3439   45.8231  -17.3831 C   0  0  0  0  0  0  0  0  0  0  0  0
  -15.6403   46.1399  -17.6995 C   0  0  0  0  0  0  0  0  0  0  0  0
  -16.2154   47.4344  -17.3218 C   0  0  0  0  0  0  0  0  0  0  0  0
  -15.9958   48.0353  -16.0990 C   0  0  0  0  0  0  0  0  0  0  0  0
  -16.5379   49.2183  -15.7949 N   0  0  0  0  0  0  0  0  0  0  0  0
  -17.3223   49.8740  -16.6712 C   0  0  0  0  0  0  0  0  0  0  0  0
  -17.9291   51.1892  -16.3437 C   0  0  0  0  0  0  0  0  0  0  0  0
  -18.0882   51.6385  -14.9442 C   0  0  0  0  0  0  0  0  0  0  0  0
  -16.9517   52.1811  -15.7170 C   0  0  0  0  0  0  0  0  0  0  0  0
  -17.5461   49.3030  -17.8657 N   0  0  0  0  0  0  0  0  0  0  0  0
  -17.0153   48.0984  -18.2212 C   0  0  0  0  0  0  0  0  0  0  0  0
  -16.3692   45.1910  -18.3840 C   0  0  0  0  0  0  0  0  0  0  0  0
  -15.7805   43.9815  -18.7192 C   0  0  0  0  0  0  0  0  0  0  0  0
  1  2  2  0
  2  3  1  0
  3  4  2  0
  4  5  1  0
  4  6  1  0
  6  7  2  0
  7  8  1  0
  8  9  1  0
  9 10  1  0
 10 11  2  0
 10 12  2  0
 10 13  1  0
 13 14  1  0
 14 15  1  0
 15 16  1  0
 16 17  1  1
 16 18  1  0
  8 19  2  0
 19 20  1  0
  2 21  1  0
 21 22  2  0
 22 23  1  0
 23 24  1  0
 24 25  2  0
 25 26  1  0
 26 27  2  0
 27 28  1  0
 28 29  2  0
 29 30  1  0
 30 31  2  0
 31 32  1  0
 32 33  1  0
 33 34  1  0
 31 35  1  0
 35 36  2  0
 27 37  1  0
 37 38  2  0
 19  3  1  0
 38 21  1  0
 18 13  1  0
 38 24  1  0
 36 28  1  0
 34 32  1  0
M  END
$$$$
