
     RDKit          3D

 23 26  0  0  0  0  0  0  0  0999 V2000
  -18.7648   39.6735  -20.6983 C   0  0  0  0  0  0  0  0  0  0  0  0
  -18.5357   40.7747  -21.6271 N   0  0  0  0  0  0  0  0  0  0  0  0
  -18.4552   40.6393  -22.9651 C   0  0  0  0  0  0  0  0  0  0  0  0
  -18.2511   41.9007  -23.4354 N   0  0  0  0  0  0  0  0  0  0  0  0
  -18.2106   42.7516  -22.4082 N   0  0  0  0  0  0  0  0  0  0  0  0
  -18.3853   42.0823  -21.2558 C   0  0  0  0  0  0  0  0  0  0  0  0
  -18.4376   42.6707  -19.5744 S   0  0  0  0  0  0  0  0  0  0  0  0
  -16.6954   42.5779  -18.8831 C   0  0  0  0  0  0  0  0  0  0  0  0
  -16.0218   43.7469  -19.4077 C   0  0  0  0  0  0  0  0  0  0  0  0
  -16.7387   44.3937  -20.2801 O   0  0  0  0  0  0  0  0  0  0  0  0
  -14.7498   44.2407  -19.0918 N   0  0  0  0  0  0  0  0  0  0  0  0
  -13.5677   43.5567  -19.3630 C   0  0  0  0  0  0  0  0  0  0  0  0
  -13.3868   42.3568  -19.9664 C   0  0  0  0  0  0  0  0  0  0  0  0
  -12.0749   41.8799  -20.1258 C   0  0  0  0  0  0  0  0  0  0  0  0
  -11.0217   42.6367  -19.6710 C   0  0  0  0  0  0  0  0  0  0  0  0
  -11.1932   43.8555  -19.0581 C   0  0  0  0  0  0  0  0  0  0  0  0
  -12.5021   44.2980  -18.9150 C   0  0  0  0  0  0  0  0  0  0  0  0
  -13.0340   45.4406  -18.3643 C   0  0  0  0  0  0  0  0  0  0  0  0
  -12.3965   46.4957  -17.7651 C   0  0  0  0  0  0  0  0  0  0  0  0
  -13.1400   47.5300  -17.2654 C   0  0  0  0  0  0  0  0  0  0  0  0
  -14.4981   47.5063  -17.3653 C   0  0  0  0  0  0  0  0  0  0  0  0
  -15.1570   46.4530  -17.9655 C   0  0  0  0  0  0  0  0  0  0  0  0
  -14.4253   45.3966  -18.4791 C   0  0  0  0  0  0  0  0  0  0  0  0
  1  2  1  0
  2  3  1  0
  3  4  2  0
  4  5  1  0
  5  6  2  0
  6  7  1  0
  7  8  1  0
  8  9  1  0
  9 10  2  0
  9 11  1  0
 11 12  1  0
 12 13  2  0
 13 14  1  0
 14 15  2  0
 15 16  1  0
 16 17  2  0
 17 18  1  0
 18 19  2  0
 19 20  1  0
 20 21  2  0
 21 22  1  0
 22 23  2  0
  6  2  1  0
 23 11  1  0
 17 12  1  0
 23 18  1  0
M  END
$$$$
