
     RDKit          3D

 37 41  0  0  0  0  0  0  0  0999 V2000
  -18.5826   50.6866  -18.2778 C   0  0  0  0  0  0  0  0  0  0  0  0
  -17.9723   49.4558  -18.8313 C   0  0  0  0  0  0  0  0  0  0  0  0
  -18.4833   48.3245  -18.5921 O   0  0  0  0  0  0  0  0  0  0  0  0
  -16.8026   49.5143  -19.6414 N   0  0  0  0  0  0  0  0  0  0  0  0
  -16.3557   48.3365  -20.3254 C   0  0  0  0  0  0  0  0  0  0  0  0
  -15.6269   48.4785  -21.4891 C   0  0  0  0  0  0  0  0  0  0  0  0
  -15.1912   47.3492  -22.1580 C   0  0  0  0  0  0  0  0  0  0  0  0
  -15.4793   46.1011  -21.6719 C   0  0  0  0  0  0  0  0  0  0  0  0
  -16.1932   45.9428  -20.5315 C   0  0  0  0  0  0  0  0  0  0  0  0
  -16.5803   44.6661  -20.0859 N   0  0  0  0  0  0  0  0  0  0  0  0
  -15.8188   44.0644  -19.1142 C   0  0  0  0  0  0  0  0  0  0  0  0
  -14.8283   44.7229  -18.7131 O   0  0  0  0  0  0  0  0  0  0  0  0
  -16.0591   42.8696  -18.5919 N   0  0  0  0  0  0  0  0  0  0  0  0
  -15.2027   42.2813  -17.5527 C   0  0  0  0  0  0  0  0  0  0  0  0
  -13.8047   42.7443  -17.4192 C   0  0  0  0  0  0  0  0  0  0  0  0
  -14.8290   43.1512  -16.3959 C   0  0  0  0  0  0  0  0  0  0  0  0
  -17.1000   42.1777  -19.0136 C   0  0  0  0  0  0  0  0  0  0  0  0
  -17.4104   41.0356  -18.5795 O   0  0  0  0  0  0  0  0  0  0  0  0
  -17.9151   42.7121  -19.9879 C   0  0  0  0  0  0  0  0  0  0  0  0
  -19.0023   41.9614  -20.4083 C   0  0  0  0  0  0  0  0  0  0  0  0
  -19.2602   40.6853  -19.8442 N   0  0  0  0  0  0  0  0  0  0  0  0
  -19.3560   39.5319  -20.6357 C   0  0  0  0  0  0  0  0  0  0  0  0
  -18.7784   39.5241  -21.8749 C   0  0  0  0  0  0  0  0  0  0  0  0
  -18.8670   38.4007  -22.6587 C   0  0  0  0  0  0  0  0  0  0  0  0
  -19.5266   37.2728  -22.2276 C   0  0  0  0  0  0  0  0  0  0  0  0
  -19.6115   35.6014  -23.4945 I   0  0  0  0  0  0  0  0  0  0  0  0
  -20.1034   37.2902  -20.9815 C   0  0  0  0  0  0  0  0  0  0  0  0
  -20.0168   38.4165  -20.1911 C   0  0  0  0  0  0  0  0  0  0  0  0
  -20.6128   38.3824  -18.9481 F   0  0  0  0  0  0  0  0  0  0  0  0
  -19.8190   42.4654  -21.3633 N   0  0  0  0  0  0  0  0  0  0  0  0
  -20.9339   41.6517  -21.7680 C   0  0  0  0  0  0  0  0  0  0  0  0
  -19.5605   43.6674  -21.8762 C   0  0  0  0  0  0  0  0  0  0  0  0
  -20.3293   44.1183  -22.7605 O   0  0  0  0  0  0  0  0  0  0  0  0
  -18.4806   44.4776  -21.4975 C   0  0  0  0  0  0  0  0  0  0  0  0
  -18.2747   45.7835  -22.1169 C   0  0  0  0  0  0  0  0  0  0  0  0
  -17.6349   43.9967  -20.5324 C   0  0  0  0  0  0  0  0  0  0  0  0
  -16.6263   47.0695  -19.8667 C   0  0  0  0  0  0  0  0  0  0  0  0
  1  2  1  0
  2  3  2  0
  2  4  1  0
  4  5  1  0
  5  6  2  0
  6  7  1  0
  7  8  2  0
  8  9  1  0
  9 10  1  0
 10 11  1  0
 11 12  2  0
 11 13  1  0
 13 14  1  0
 14 15  1  0
 15 16  1  0
 13 17  1  0
 17 18  2  0
 17 19  1  0
 19 20  2  0
 20 21  1  0
 21 22  1  0
 22 23  2  0
 23 24  1  0
 24 25  2  0
 25 26  1  0
 25 27  1  0
 27 28  2  0
 28 29  1  0
 20 30  1  0
 30 31  1  0
 30 32  1  0
 32 33  2  0
 32 34  1  0
 34 35  1  0
 34 36  2  0
  9 37  2  0
 37  5  1  0
 36 10  1  0
 16 14  1  0
 36 19  1  0
 28 22  1  0
M  END
$$$$
