
     RDKit          3D

 26 27  0  0  0  0  0  0  0  0999 V2000
  -19.5130   39.1325  -17.4621 N   0  0  0  0  0  0  0  0  0  0  0  0
  -19.0135   39.9531  -18.1185 C   0  0  0  0  0  0  0  0  0  0  0  0
  -18.4100   40.9810  -18.9134 C   0  0  0  0  0  0  0  0  0  0  0  0
  -17.5672   41.9536  -18.4611 N   0  0  0  0  0  0  0  0  0  0  0  0
  -17.2054   42.7284  -19.4729 N   0  0  0  0  0  0  0  0  0  0  0  0
  -16.3334   43.8685  -19.4567 C   0  0  0  0  0  0  0  0  0  0  0  0
  -16.8190   45.1568  -19.2878 C   0  0  0  0  0  0  0  0  0  0  0  0
  -18.5423   45.3867  -19.0901 Cl  0  0  0  0  0  0  0  0  0  0  0  0
  -15.9663   46.2426  -19.2746 C   0  0  0  0  0  0  0  0  0  0  0  0
  -14.6099   46.0725  -19.4292 C   0  0  0  0  0  0  0  0  0  0  0  0
  -13.6708   47.2261  -19.4187 C   0  0  0  0  0  0  0  0  0  0  0  0
  -13.9985   48.0144  -20.5096 F   0  0  0  0  0  0  0  0  0  0  0  0
  -13.8864   47.9391  -18.2674 F   0  0  0  0  0  0  0  0  0  0  0  0
  -12.3600   46.8171  -19.4606 F   0  0  0  0  0  0  0  0  0  0  0  0
  -14.1093   44.8004  -19.5982 C   0  0  0  0  0  0  0  0  0  0  0  0
  -14.9684   43.7215  -19.6100 C   0  0  0  0  0  0  0  0  0  0  0  0
  -14.3415   42.1065  -19.8236 Cl  0  0  0  0  0  0  0  0  0  0  0  0
  -17.7964   42.2809  -20.5812 C   0  0  0  0  0  0  0  0  0  0  0  0
  -17.6812   42.8201  -21.8908 N   0  0  0  0  0  0  0  0  0  0  0  0
  -18.5751   41.1665  -20.2707 C   0  0  0  0  0  0  0  0  0  0  0  0
  -19.5559   40.2131  -21.3990 S   0  0  0  0  0  4  0  0  0  0  0  0
  -20.5707   39.4254  -20.5987 O   0  0  0  0  0  0  0  0  0  0  0  0
  -18.5342   39.0979  -22.3675 C   0  0  0  0  0  0  0  0  0  0  0  0
  -17.3149   38.9111  -21.7693 F   0  0  0  0  0  0  0  0  0  0  0  0
  -19.1154   37.8681  -22.5452 F   0  0  0  0  0  0  0  0  0  0  0  0
  -18.3380   39.6702  -23.6032 F   0  0  0  0  0  0  0  0  0  0  0  0
  1  2  3  0
  2  3  1  0
  3  4  2  0
  4  5  1  0
  5  6  1  0
  6  7  2  0
  7  8  1  0
  7  9  1  0
  9 10  2  0
 10 11  1  0
 11 12  1  0
 11 13  1  0
 11 14  1  0
 10 15  1  0
 15 16  2  0
 16 17  1  0
  5 18  1  0
 18 19  1  0
 18 20  2  0
 20 21  1  0
 21 22  2  0
 21 23  1  0
 23 24  1  0
 23 25  1  0
 23 26  1  0
 20  3  1  0
 16  6  1  0
M  END
$$$$
