
     RDKit          3D

 13 12  0  0  0  0  0  0  0  0999 V2000
  -21.4052   33.0800  -20.3116 O   0  0  0  0  0  0  0  0  0  0  0  0
  -21.2892   34.0450  -21.0968 C   0  0  0  0  0  0  0  0  0  0  0  0
  -22.1186   35.1470  -20.9958 O   0  0  0  0  0  0  0  0  0  0  0  0
  -20.2541   34.0396  -22.1664 C   0  0  0  0  0  0  0  0  0  0  0  0
  -18.9516   34.5444  -21.6538 C   0  0  0  0  0  0  0  0  0  0  0  0
  -18.9972   36.0109  -21.3229 C   0  0  0  0  0  0  0  0  0  0  0  0
  -17.7881   36.6665  -21.9249 C   0  0  0  0  0  0  0  0  0  0  0  0
  -17.7438   38.1546  -21.6481 C   0  0  0  0  0  0  0  0  0  0  0  0
  -18.0370   38.9714  -22.8649 C   0  0  0  0  0  0  0  0  0  0  0  0
  -18.7005   40.2617  -22.4973 C   0  0  0  0  0  0  0  0  0  0  0  0
  -17.8086   41.3544  -22.1213 C   0  0  0  0  0  0  0  0  0  0  0  0
  -18.1131   42.4258  -21.5604 O   0  0  0  0  0  0  0  0  0  0  0  0
  -16.4395   41.1945  -22.4208 O   0  0  0  0  0  0  0  0  0  0  0  0
  1  2  2  0
  2  3  1  0
  2  4  1  0
  4  5  1  0
  5  6  1  0
  6  7  1  0
  7  8  1  0
  8  9  1  0
  9 10  1  0
 10 11  1  0
 11 12  2  0
 11 13  1  0
M  END
$$$$
