
     RDKit          3D

 26 30  0  0  0  0  0  0  0  0999 V2000
  -15.2181   -3.3342  -29.7761 C   0  0  0  0  0  0  0  0  0  0  0  0
  -15.5156   -3.2050  -31.2664 C   0  0  1  0  0  0  0  0  0  0  0  0
  -16.8321   -2.5172  -31.4110 C   0  0  0  0  0  0  0  0  0  0  0  0
  -16.8555   -1.5183  -32.5002 C   0  0  0  0  0  0  0  0  0  0  0  0
  -15.8310   -1.3247  -33.3947 C   0  0  0  0  0  0  0  0  0  0  0  0
  -16.1549   -0.3517  -34.2558 N   0  0  0  0  0  0  0  0  0  0  0  0
  -17.3864    0.1127  -33.9515 C   0  0  0  0  0  0  0  0  0  0  0  0
  -18.1663    1.0995  -34.5249 C   0  0  0  0  0  0  0  0  0  0  0  0
  -19.3974    1.3623  -33.9979 C   0  0  0  0  0  0  0  0  0  0  0  0
  -20.4008    2.6069  -34.7080 Cl  0  0  0  0  0  0  0  0  0  0  0  0
  -19.8679    0.6542  -32.9023 C   0  0  0  0  0  0  0  0  0  0  0  0
  -21.0956    0.9438  -32.4072 F   0  0  0  0  0  0  0  0  0  0  0  0
  -19.0643   -0.3246  -32.3535 C   0  0  0  0  0  0  0  0  0  0  0  0
  -17.8288   -0.6213  -32.8458 C   0  0  0  0  0  0  0  0  0  0  0  0
  -14.6214   -2.1804  -33.2516 C   0  0  1  0  0  0  0  0  0  0  0  0
  -14.4137   -2.5110  -31.8645 N   0  0  0  0  0  0  0  0  0  0  0  0
  -14.6761   -3.3654  -34.1196 C   0  0  0  0  0  0  0  0  0  0  0  0
  -15.5536   -4.2701  -33.9999 O   0  0  0  0  0  0  0  0  0  0  0  0
  -13.6085   -3.2657  -35.0418 N   0  0  0  0  0  0  0  0  0  0  0  0
  -12.8983   -2.0629  -34.7738 C   0  0  0  0  0  0  0  0  0  0  0  0
  -11.7809   -1.4803  -35.3681 C   0  0  0  0  0  0  0  0  0  0  0  0
  -11.2572   -0.2824  -34.9293 C   0  0  0  0  0  0  0  0  0  0  0  0
  -11.8274    0.3994  -33.8664 C   0  0  0  0  0  0  0  0  0  0  0  0
  -11.1574    1.9213  -33.3133 Cl  0  0  0  0  0  0  0  0  0  0  0  0
  -12.9310   -0.1763  -33.2798 C   0  0  0  0  0  0  0  0  0  0  0  0
  -13.4682   -1.3949  -33.7220 C   0  0  0  0  0  0  0  0  0  0  0  0
  2  1  1  1
  2  3  1  0
  3  4  1  0
  4  5  2  0
  5  6  1  0
  6  7  1  0
  7  8  2  0
  8  9  1  0
  9 10  1  0
  9 11  2  0
 11 12  1  0
 11 13  1  0
 13 14  2  0
  5 15  1  0
 15 16  1  1
 15 17  1  0
 17 18  2  0
 17 19  1  0
 19 20  1  0
 20 21  2  0
 21 22  1  0
 22 23  2  0
 23 24  1  0
 23 25  1  0
 25 26  2  0
 16  2  1  0
 26 20  1  0
 14  4  1  0
 26 15  1  0
 14  7  1  0
M  END
$$$$
