
     RDKit          3D

 25 28  0  0  0  0  0  0  0  0999 V2000
  -16.6297   23.4788  -43.0452 O   0  0  0  0  0  0  0  0  0  0  0  0
  -17.5301   22.6271  -42.8724 C   0  0  0  0  0  0  0  0  0  0  0  0
  -18.9760   22.9617  -42.7908 C   0  0  0  0  0  0  0  0  0  0  0  0
  -19.4908   21.7726  -42.0046 C   0  0  0  0  0  0  0  0  0  0  0  0
  -18.6681   20.6399  -42.5809 C   0  0  0  0  0  0  0  0  0  0  0  0
  -17.3472   21.2306  -42.7270 N   0  0  0  0  0  0  0  0  0  0  0  0
  -16.1281   20.4735  -42.7158 C   0  0  0  0  0  0  0  0  0  0  0  0
  -15.0903   20.8083  -43.5528 C   0  0  0  0  0  0  0  0  0  0  0  0
  -13.9029   20.0754  -43.5480 C   0  0  0  0  0  0  0  0  0  0  0  0
  -13.7328   18.9970  -42.7079 C   0  0  0  0  0  0  0  0  0  0  0  0
  -12.2075   18.1469  -42.7806 S   0  0  0  0  0  6  0  0  0  0  0  0
  -11.8456   17.9750  -44.2270 O   0  0  0  0  0  0  0  0  0  0  0  0
  -12.2882   16.7822  -42.1669 O   0  0  0  0  0  0  0  0  0  0  0  0
  -10.9651   19.0201  -41.9476 N   0  0  0  0  0  0  0  0  0  0  0  0
  -10.5998   18.3915  -40.7206 C   0  0  0  0  0  0  0  0  0  0  0  0
   -9.0993   18.3149  -40.4969 C   0  0  0  0  0  0  0  0  0  0  0  0
   -8.5458   17.6190  -41.6984 C   0  0  0  0  0  0  0  0  0  0  0  0
   -7.6875   16.5643  -41.6468 C   0  0  0  0  0  0  0  0  0  0  0  0
   -7.2437   16.0020  -42.8444 C   0  0  0  0  0  0  0  0  0  0  0  0
   -7.6556   16.4919  -44.0683 C   0  0  0  0  0  0  0  0  0  0  0  0
   -8.5293   17.5657  -44.1174 C   0  0  0  0  0  0  0  0  0  0  0  0
   -8.9664   18.1196  -42.9212 C   0  0  0  0  0  0  0  0  0  0  0  0
   -9.9028   19.2727  -42.8678 C   0  0  0  0  0  0  0  0  0  0  0  0
  -14.7496   18.6534  -41.8743 C   0  0  0  0  0  0  0  0  0  0  0  0
  -15.9249   19.3915  -41.8899 C   0  0  0  0  0  0  0  0  0  0  0  0
  1  2  2  0
  2  3  1  0
  3  4  1  0
  4  5  1  0
  5  6  1  0
  6  7  1  0
  7  8  2  0
  8  9  1  0
  9 10  2  0
 10 11  1  0
 11 12  2  0
 11 13  2  0
 11 14  1  0
 14 15  1  0
 15 16  1  0
 16 17  1  0
 17 18  2  0
 18 19  1  0
 19 20  2  0
 20 21  1  0
 21 22  2  0
 22 23  1  0
 10 24  1  0
 24 25  2  0
  6  2  1  0
 25  7  1  0
 23 14  1  0
 22 17  1  0
M  END
$$$$
