
     RDKit          3D

 22 23  0  0  0  0  0  0  0  0999 V2000
  -22.4785   38.8615  -23.7164 C   0  0  0  0  0  0  0  0  0  0  0  0
  -23.2910   38.1839  -24.6641 N   0  0  0  0  0  0  0  0  0  0  0  0
  -24.5530   37.8038  -24.1060 C   0  0  0  0  0  0  0  0  0  0  0  0
  -22.6426   37.1601  -25.4080 C   0  0  0  0  0  0  0  0  0  0  0  0
  -23.5553   36.4769  -26.3978 C   0  0  0  0  0  0  0  0  0  0  0  0
  -22.8014   35.3739  -27.1790 C   0  0  0  0  0  0  0  0  0  0  0  0
  -23.6596   34.7424  -28.1234 N   0  0  0  0  0  0  0  0  0  0  0  0
  -24.2250   35.5579  -29.1747 C   0  0  0  0  0  0  0  0  0  0  0  0
  -23.4813   36.6937  -29.3701 C   0  0  0  0  0  0  0  0  0  0  0  0
  -23.8577   37.6185  -30.3308 C   0  0  0  0  0  0  0  0  0  0  0  0
  -24.9899   37.3393  -31.0590 C   0  0  0  0  0  0  0  0  0  0  0  0
  -25.7330   36.1916  -30.8565 C   0  0  0  0  0  0  0  0  0  0  0  0
  -25.3611   35.2538  -29.8905 C   0  0  0  0  0  0  0  0  0  0  0  0
  -26.3108   34.1329  -29.9183 C   0  0  0  0  0  0  0  0  0  0  0  0
  -26.3781   33.2730  -28.7136 C   0  0  0  0  0  0  0  0  0  0  0  0
  -25.1103   32.6955  -28.2362 C   0  0  0  0  0  0  0  0  0  0  0  0
  -25.1376   31.3146  -28.0173 C   0  0  0  0  0  0  0  0  0  0  0  0
  -24.0059   30.6649  -27.5533 C   0  0  0  0  0  0  0  0  0  0  0  0
  -22.8221   31.3385  -27.2911 C   0  0  0  0  0  0  0  0  0  0  0  0
  -22.7842   32.6945  -27.5032 C   0  0  0  0  0  0  0  0  0  0  0  0
  -23.9179   33.3262  -27.9646 C   0  0  0  0  0  0  0  0  0  0  0  0
  -23.7700   35.8329  -27.0209 Cl  0  0  0  0  0  0  0  0  0  0  0  0
  1  2  1  0
  2  3  1  0
  2  4  1  0
  4  5  1  0
  5  6  1  0
  6  7  1  0
  7  8  1  0
  8  9  2  0
  9 10  1  0
 10 11  2  0
 11 12  1  0
 12 13  2  0
 13 14  1  0
 14 15  1  0
 15 16  1  0
 16 17  2  0
 17 18  1  0
 18 19  2  0
 19 20  1  0
 20 21  2  0
 21  7  1  0
 13  8  1  0
 21 16  1  0
M  END
$$$$
