
     RDKit          3D

 29 31  0  0  0  0  0  0  0  0999 V2000
  -14.8474   15.9018  -26.3129 C   0  0  0  0  0  0  0  0  0  0  0  0
  -15.0709   15.0965  -27.5455 C   0  0  0  0  0  0  0  0  0  0  0  0
  -14.0423   14.4397  -28.1711 C   0  0  0  0  0  0  0  0  0  0  0  0
  -14.2572   13.6867  -29.3021 C   0  0  0  0  0  0  0  0  0  0  0  0
  -13.1118   12.9828  -29.9934 C   0  0  0  0  0  0  0  0  0  0  0  0
  -15.5347   13.5958  -29.8078 C   0  0  0  0  0  0  0  0  0  0  0  0
  -16.5710   14.2236  -29.2281 C   0  0  0  0  0  0  0  0  0  0  0  0
  -17.9404   14.1752  -29.6766 C   0  0  0  0  0  0  0  0  0  0  0  0
  -18.5808   13.1537  -29.1374 O   0  0  0  0  0  0  0  0  0  0  0  0
  -18.6474   15.0044  -30.5367 N   0  0  0  0  0  0  0  0  0  0  0  0
  -19.8398   14.4625  -31.0944 N   0  0  0  0  0  0  0  0  0  0  0  0
  -21.0726   14.6356  -30.4356 C   0  0  0  0  0  0  0  0  0  0  0  0
  -21.0562   15.3575  -29.4026 O   0  0  0  0  0  0  0  0  0  0  0  0
  -22.3401   14.0548  -30.8461 C   0  0  0  0  0  0  0  0  0  0  0  0
  -23.4464   14.9131  -31.0033 C   0  0  0  0  0  0  0  0  0  0  0  0
  -24.6602   14.4167  -31.4183 C   0  0  0  0  0  0  0  0  0  0  0  0
  -24.7840   13.0678  -31.6796 C   0  0  0  0  0  0  0  0  0  0  0  0
  -23.7085   12.1999  -31.5317 C   0  0  0  0  0  0  0  0  0  0  0  0
  -22.4668   12.7041  -31.1071 C   0  0  0  0  0  0  0  0  0  0  0  0
  -21.3126   11.7939  -30.9265 C   0  0  0  0  0  0  0  0  0  0  0  0
  -23.7967   10.7702  -31.8113 C   0  0  0  0  0  0  0  0  0  0  0  0
  -25.1274   10.2928  -32.3069 C   0  0  0  0  0  0  0  0  0  0  0  0
  -25.9861   11.3618  -32.9287 C   0  0  0  0  0  0  0  0  0  0  0  0
  -25.9757   12.5174  -32.0987 O   0  0  0  0  0  0  0  0  0  0  0  0
  -18.2640   16.3272  -30.9103 C   0  0  0  0  0  0  0  0  0  0  0  0
  -16.8713   16.3886  -31.4823 C   0  0  0  0  0  0  0  0  0  0  0  0
  -18.3324   17.2601  -29.7016 C   0  0  0  0  0  0  0  0  0  0  0  0
  -19.2228   16.8988  -31.9559 C   0  0  0  0  0  0  0  0  0  0  0  0
  -16.3410   14.9909  -28.0736 C   0  0  0  0  0  0  0  0  0  0  0  0
  1  2  1  0
  2  3  2  0
  3  4  1  0
  4  5  1  0
  4  6  2  0
  6  7  1  0
  7  8  1  0
  8  9  2  0
  8 10  1  0
 10 11  1  0
 11 12  1  0
 12 13  2  0
 12 14  1  0
 14 15  2  0
 15 16  1  0
 16 17  2  0
 17 18  1  0
 18 19  2  0
 19 20  1  0
 18 21  1  0
 21 22  1  0
 22 23  1  0
 23 24  1  0
 10 25  1  0
 25 26  1  0
 25 27  1  0
 25 28  1  0
  7 29  2  0
 29  2  1  0
 19 14  1  0
 24 17  1  0
M  END
$$$$
