
     RDKit          3D

 30 32  0  0  0  0  0  0  0  0999 V2000
  -19.2026   30.1888  -25.2876 C   0  0  0  0  0  0  0  0  0  0  0  0
  -19.4790   30.7476  -23.9187 C   0  0  0  0  0  0  0  0  0  0  0  0
  -20.0059   30.5443  -22.8779 N   0  0  0  0  0  0  0  0  0  0  0  0
  -20.0236   31.2826  -21.8394 N   0  0  0  0  0  0  0  0  0  0  0  0
  -19.4201   32.4203  -21.8080 C   0  0  0  0  0  0  0  0  0  0  0  0
  -19.1231   33.6488  -20.6032 S   0  0  0  0  0  0  0  0  0  0  0  0
  -18.2703   35.0490  -21.1182 C   0  0  0  0  0  0  0  0  0  0  0  0
  -18.7160   36.2671  -21.7220 C   0  0  0  0  0  0  0  0  0  0  0  0
  -19.9234   36.6883  -21.9285 C   0  0  0  0  0  0  0  0  0  0  0  0
  -21.1096   35.9459  -21.5596 C   0  0  0  0  0  0  0  0  0  0  0  0
  -21.1271   34.8639  -21.0059 O   0  0  0  0  0  0  0  0  0  0  0  0
  -22.4084   36.4514  -21.8301 O   0  0  0  0  0  1  0  0  0  0  0  0
  -20.2349   38.0033  -22.4709 N   0  0  0  0  0  0  0  0  0  0  0  0
  -21.1262   39.1006  -22.5398 C   0  0  0  0  0  0  0  0  0  0  0  0
  -22.3429   39.2703  -22.3187 O   0  0  0  0  0  0  0  0  0  0  0  0
  -20.0736   40.0469  -22.9911 C   0  0  1  0  0  0  0  0  0  0  0  0
  -19.4568   40.7388  -21.8874 N   0  0  0  0  0  0  0  0  0  0  0  0
  -19.1874   42.1426  -21.9350 C   0  0  0  0  0  0  0  0  0  0  0  0
  -19.5041   42.7896  -22.9594 O   0  0  0  0  0  0  0  0  0  0  0  0
  -18.5418   42.8338  -20.8084 C   0  0  0  0  0  0  0  0  0  0  0  0
  -19.4066   43.5328  -19.9065 N   0  0  0  0  0  0  0  0  0  0  0  0
  -19.7571   44.8506  -20.0525 C   0  0  0  0  0  0  0  0  0  0  0  0
  -20.5526   45.1687  -19.0375 N   0  0  0  0  0  0  0  0  0  0  0  0
  -20.6968   44.1130  -18.2920 N   0  0  0  0  0  0  0  0  0  0  0  0
  -20.0162   43.1207  -18.7988 N   0  0  0  0  0  0  0  0  0  0  0  0
  -19.3812   38.7289  -23.3435 C   0  0  1  0  0  0  0  0  0  0  0  0
  -17.7491   38.7639  -22.4926 S   0  0  0  0  0  0  0  0  0  0  0  0
  -17.4683   37.0686  -22.1590 C   0  0  0  0  0  0  0  0  0  0  0  0
  -18.7210   32.4378  -23.5461 S   0  0  0  0  0  0  0  0  0  0  0  0
  -19.3619   37.6435  -22.0545 Na  0  0  0  0  0 15  0  0  0  0  0  0
  1  2  1  0
  2  3  2  0
  3  4  1  0
  4  5  2  0
  5  6  1  0
  6  7  1  0
  7  8  1  0
  8  9  2  0
  9 10  1  0
 10 11  2  0
 10 12  1  0
  9 13  1  0
 13 14  1  0
 14 15  2  0
 14 16  1  0
 16 17  1  1
 17 18  1  0
 18 19  2  0
 18 20  1  0
 20 21  1  0
 21 22  1  0
 22 23  2  0
 23 24  1  0
 24 25  2  0
 16 26  1  0
 26 27  1  1
 27 28  1  0
  5 29  1  0
 29  2  1  0
 28  8  1  0
 26 13  1  0
 25 21  1  0
M  CHG  2  12  -1  30   1
M  END
$$$$
