
     RDKit          3D

 20 22  0  0  0  0  0  0  0  0999 V2000
  -10.4688    1.9467  -33.8416 C   0  0  0  0  0  0  0  0  0  0  0  0
  -11.7172    1.1648  -33.6412 C   0  0  0  0  0  0  0  0  0  0  0  0
  -11.9309   -0.0131  -34.2848 C   0  0  0  0  0  0  0  0  0  0  0  0
  -13.0833   -0.7481  -34.1084 C   0  0  0  0  0  0  0  0  0  0  0  0
  -14.0444   -0.2619  -33.2476 C   0  0  0  0  0  0  0  0  0  0  0  0
  -15.5743   -1.1437  -32.9525 S   0  0  0  0  0  0  0  0  0  0  0  0
  -15.3612   -2.4070  -31.7236 C   0  0  0  0  0  0  0  0  0  0  0  0
  -14.2358   -3.2133  -31.6687 C   0  0  0  0  0  0  0  0  0  0  0  0
  -14.0743   -4.1883  -30.7180 C   0  0  0  0  0  0  0  0  0  0  0  0
  -15.0370   -4.4002  -29.7758 C   0  0  0  0  0  0  0  0  0  0  0  0
  -16.1718   -3.6054  -29.8112 C   0  0  0  0  0  0  0  0  0  0  0  0
  -17.1408   -3.7812  -28.9040 N   0  0  0  0  0  0  0  0  0  0  0  0
  -18.2637   -3.0397  -28.8897 C   0  0  0  0  0  0  0  0  0  0  0  0
  -19.2946   -3.2096  -27.9432 N   0  0  0  0  0  0  0  0  0  0  0  0
  -18.4074   -2.0869  -29.8290 N   0  0  0  0  0  0  0  0  0  0  0  0
  -17.4794   -1.8426  -30.7811 C   0  0  0  0  0  0  0  0  0  0  0  0
  -17.6469   -0.8341  -31.7640 N   0  0  0  0  0  0  0  0  0  0  0  0
  -16.3328   -2.6116  -30.7828 C   0  0  0  0  0  0  0  0  0  0  0  0
  -13.8493    0.9402  -32.5778 C   0  0  0  0  0  0  0  0  0  0  0  0
  -12.6884    1.6366  -32.7841 C   0  0  0  0  0  0  0  0  0  0  0  0
  1  2  1  0
  2  3  2  0
  3  4  1  0
  4  5  2  0
  5  6  1  0
  6  7  1  0
  7  8  2  0
  8  9  1  0
  9 10  2  0
 10 11  1  0
 11 12  2  0
 12 13  1  0
 13 14  1  0
 13 15  2  0
 15 16  1  0
 16 17  1  0
 16 18  2  0
  5 19  1  0
 19 20  2  0
 20  2  1  0
 18  7  1  0
 18 11  1  0
M  END
$$$$
