
     RDKit          3D

 22 23  0  0  0  0  0  0  0  0999 V2000
  -19.7255   43.2274  -25.6545 C   0  0  0  0  0  0  0  0  0  0  0  0
  -18.3788   43.2094  -24.8772 C   0  0  0  0  0  0  0  0  0  0  0  0
  -17.5241   44.3472  -25.4647 C   0  0  0  0  0  0  0  0  0  0  0  0
  -18.6625   43.4588  -23.5910 O   0  0  0  0  0  0  0  0  0  0  0  0
  -18.7163   42.8159  -22.4145 C   0  0  0  0  0  0  0  0  0  0  0  0
  -18.9578   41.4199  -22.3856 C   0  0  0  0  0  0  0  0  0  0  0  0
  -19.0314   40.6808  -21.2696 C   0  0  0  0  0  0  0  0  0  0  0  0
  -19.2774   39.2687  -21.2746 N   0  0  0  0  0  0  0  0  0  0  0  0
  -18.5569   38.3596  -21.9114 N   0  0  0  0  0  0  0  0  0  0  0  0
  -19.0652   37.1315  -21.7035 C   0  0  0  0  0  0  0  0  0  0  0  0
  -18.5558   35.8261  -22.2393 C   0  0  0  0  0  0  0  0  0  0  0  0
  -18.6285   35.8024  -23.7543 C   0  0  0  0  0  0  0  0  0  0  0  0
  -17.1370   35.5954  -21.7537 C   0  0  0  0  0  0  0  0  0  0  0  0
  -19.3971   34.6897  -21.7287 C   0  0  0  0  0  0  0  0  0  0  0  0
  -20.1095   37.3089  -20.9278 O   0  0  0  0  0  0  0  0  0  0  0  0
  -20.2526   38.5883  -20.6594 C   0  0  0  0  0  0  0  0  0  0  0  0
  -21.1536   39.0741  -19.9472 O   0  0  0  0  0  0  0  0  0  0  0  0
  -18.8621   41.3058  -20.0427 C   0  0  0  0  0  0  0  0  0  0  0  0
  -18.9562   40.3499  -18.5781 Cl  0  0  0  0  0  0  0  0  0  0  0  0
  -18.6259   42.6477  -19.9891 C   0  0  0  0  0  0  0  0  0  0  0  0
  -18.5560   43.3875  -21.1805 C   0  0  0  0  0  0  0  0  0  0  0  0
  -18.2468   45.1292  -21.0575 Cl  0  0  0  0  0  0  0  0  0  0  0  0
  1  2  1  0
  2  3  1  0
  2  4  1  0
  4  5  1  0
  5  6  2  0
  6  7  1  0
  7  8  1  0
  8  9  1  0
  9 10  2  0
 10 11  1  0
 11 12  1  0
 11 13  1  0
 11 14  1  0
 10 15  1  0
 15 16  1  0
 16 17  2  0
  7 18  2  0
 18 19  1  0
 18 20  1  0
 20 21  2  0
 21 22  1  0
 21  5  1  0
 16  8  1  0
M  END
$$$$
