
     RDKit          3D

 25 28  0  0  0  0  0  0  0  0999 V2000
  -19.3546   44.1252  -25.3837 C   0  0  0  0  0  0  0  0  0  0  0  0
  -20.4955   43.3800  -25.6786 O   0  0  0  0  0  0  0  0  0  0  0  0
  -20.7590   42.1145  -25.2413 C   0  0  0  0  0  0  0  0  0  0  0  0
  -19.9555   41.5389  -24.2875 C   0  0  0  0  0  0  0  0  0  0  0  0
  -20.1730   40.2536  -23.8023 C   0  0  0  0  0  0  0  0  0  0  0  0
  -21.2470   39.5405  -24.3124 C   0  0  0  0  0  0  0  0  0  0  0  0
  -22.0727   40.0881  -25.2700 C   0  0  0  0  0  0  0  0  0  0  0  0
  -21.8163   41.3796  -25.7265 C   0  0  0  0  0  0  0  0  0  0  0  0
  -22.6112   41.9435  -26.6673 F   0  0  0  0  0  0  0  0  0  0  0  0
  -21.6469   38.1715  -23.9333 C   0  0  0  0  0  0  0  0  0  0  0  0
  -22.8263   37.6686  -24.6380 C   0  0  0  0  0  0  0  0  0  0  0  0
  -24.0780   38.0150  -24.1595 C   0  0  0  0  0  0  0  0  0  0  0  0
  -25.2392   37.5847  -24.7631 C   0  0  0  0  0  0  0  0  0  0  0  0
  -25.1595   36.7835  -25.8792 C   0  0  0  0  0  0  0  0  0  0  0  0
  -23.9134   36.4444  -26.3476 C   0  0  0  0  0  0  0  0  0  0  0  0
  -22.7598   36.8733  -25.7460 C   0  0  0  0  0  0  0  0  0  0  0  0
  -21.2118   36.4109  -26.3853 Cl  0  0  0  0  0  0  0  0  0  0  0  0
  -21.0751   37.4031  -23.0694 N   0  0  0  0  0  0  0  0  0  0  0  0
  -19.9364   37.5966  -22.2383 C   0  0  0  0  0  0  0  0  0  0  0  0
  -19.4407   36.7018  -21.3714 C   0  0  0  0  0  0  0  0  0  0  0  0
  -19.9964   35.3363  -21.1215 C   0  0  0  0  0  0  0  0  0  0  0  0
  -18.3076   37.2314  -20.7183 N   0  0  0  0  0  0  0  0  0  0  0  0
  -18.0949   38.5381  -21.2184 N   0  0  0  0  0  0  0  0  0  0  0  0
  -19.1006   38.7935  -22.1724 C   0  0  0  0  0  0  0  0  0  0  0  0
  -19.1970   39.9036  -22.8238 N   0  0  0  0  0  0  0  0  0  0  0  0
  1  2  1  0
  2  3  1  0
  3  4  2  0
  4  5  1  0
  5  6  2  0
  6  7  1  0
  7  8  2  0
  8  9  1  0
  6 10  1  0
 10 11  1  0
 11 12  2  0
 12 13  1  0
 13 14  2  0
 14 15  1  0
 15 16  2  0
 16 17  1  0
 10 18  2  0
 18 19  1  0
 19 20  2  0
 20 21  1  0
 20 22  1  0
 22 23  1  0
 23 24  1  0
 24 25  2  0
  8  3  1  0
 16 11  1  0
 24 19  1  0
 25  5  1  0
M  END
$$$$
