
     RDKit          3D

 22 24  0  0  0  0  0  0  0  0999 V2000
  -10.6417   16.8109  -41.4238 C   0  0  0  0  0  0  0  0  0  0  0  0
  -11.7691   17.1719  -40.4987 C   0  0  0  0  0  0  0  0  0  0  0  0
  -11.5484   17.3375  -39.1484 C   0  0  0  0  0  0  0  0  0  0  0  0
  -12.5501   17.6680  -38.2649 C   0  0  0  0  0  0  0  0  0  0  0  0
  -13.8506   17.8511  -38.7119 C   0  0  0  0  0  0  0  0  0  0  0  0
  -14.9084   18.1934  -37.8314 N   0  0  0  0  0  0  0  0  0  0  0  0
  -14.8175   19.4240  -36.5218 S   0  0  0  0  0  0  0  0  0  0  0  0
  -16.5613   19.1695  -35.9705 C   0  0  0  0  0  0  0  0  0  0  0  0
  -17.0723   19.7759  -35.0603 O   0  0  0  0  0  0  0  0  0  0  0  0
  -16.9496   18.2296  -36.8189 N   0  0  0  0  0  0  0  0  0  0  0  0
  -18.3632   17.7177  -36.7076 C   0  0  0  0  0  0  0  0  0  0  0  0
  -18.4068   16.4875  -35.9251 C   0  0  0  0  0  0  0  0  0  0  0  0
  -18.7832   15.3012  -36.5249 C   0  0  0  0  0  0  0  0  0  0  0  0
  -18.8508   14.1033  -35.8640 C   0  0  0  0  0  0  0  0  0  0  0  0
  -18.5345   14.0455  -34.5367 C   0  0  0  0  0  0  0  0  0  0  0  0
  -18.5885   12.8721  -33.8394 F   0  0  0  0  0  0  0  0  0  0  0  0
  -18.1518   15.2312  -33.9106 C   0  0  0  0  0  0  0  0  0  0  0  0
  -18.0869   16.4324  -34.5850 C   0  0  0  0  0  0  0  0  0  0  0  0
  -16.1699   17.7389  -37.7301 C   0  0  0  0  0  0  0  0  0  0  0  0
  -16.4997   16.8088  -38.5954 O   0  0  0  0  0  0  0  0  0  0  0  0
  -14.0550   17.6797  -40.0786 C   0  0  0  0  0  0  0  0  0  0  0  0
  -13.0537   17.3493  -40.9621 C   0  0  0  0  0  0  0  0  0  0  0  0
  1  2  1  0
  2  3  2  0
  3  4  1  0
  4  5  2  0
  5  6  1  0
  6  7  1  0
  7  8  1  0
  8  9  2  0
  8 10  1  0
 10 11  1  0
 11 12  1  0
 12 13  2  0
 13 14  1  0
 14 15  2  0
 15 16  1  0
 15 17  1  0
 17 18  2  0
 10 19  1  0
 19 20  2  0
  5 21  1  0
 21 22  2  0
 22  2  1  0
 19  6  1  0
 18 12  1  0
M  END
$$$$
