
     RDKit          3D

 23 25  0  0  0  0  0  0  0  0999 V2000
  -21.2115   45.9959  -20.7039 C   0  0  0  0  0  0  0  0  0  0  0  0
  -19.9505   45.6845  -21.2280 O   0  0  0  0  0  0  0  0  0  0  0  0
  -19.5721   44.3610  -21.4042 C   0  0  0  0  0  0  0  0  0  0  0  0
  -20.5085   43.3465  -21.5827 C   0  0  0  0  0  0  0  0  0  0  0  0
  -20.1108   42.0531  -21.7539 C   0  0  0  0  0  0  0  0  0  0  0  0
  -18.7623   41.7661  -21.7471 C   0  0  0  0  0  0  0  0  0  0  0  0
  -17.8312   42.7754  -21.5696 C   0  0  0  0  0  0  0  0  0  0  0  0
  -18.2211   44.0824  -21.3963 C   0  0  0  0  0  0  0  0  0  0  0  0
  -17.2930   45.1277  -21.2138 O   0  0  0  0  0  0  0  0  0  0  0  0
  -16.0428   44.7694  -20.6589 C   0  0  0  0  0  0  0  0  0  0  0  0
  -18.3615   40.3483  -21.9285 C   0  0  0  0  0  0  0  0  0  0  0  0
  -18.3997   39.7026  -20.5701 C   0  0  0  0  0  0  0  0  0  0  0  0
  -18.7823   38.2673  -20.6406 C   0  0  0  0  0  0  0  0  0  0  0  0
  -19.2926   37.7858  -19.6478 O   0  0  0  0  0  0  0  0  0  0  0  0
  -18.5103   37.5615  -21.9003 C   0  0  0  0  0  0  0  0  0  0  0  0
  -19.1152   36.1762  -21.9659 C   0  0  0  0  0  0  0  0  0  0  0  0
  -20.1826   36.0327  -22.9965 C   0  0  0  0  0  0  0  0  0  0  0  0
  -21.5390   36.3148  -22.3854 C   0  0  0  0  0  0  0  0  0  0  0  0
  -20.2084   34.5492  -23.3924 C   0  0  0  0  0  0  0  0  0  0  0  0
  -19.0350   38.3255  -23.0660 C   0  0  0  0  0  0  0  0  0  0  0  0
  -19.1225   39.7330  -22.9209 N   0  0  0  0  0  0  0  0  0  0  0  0
  -20.4433   40.1821  -23.1774 C   0  0  0  0  0  0  0  0  0  0  0  0
  -21.0251   40.8965  -21.9586 C   0  0  0  0  0  0  0  0  0  0  0  0
  1  2  1  0
  2  3  1  0
  3  4  2  0
  4  5  1  0
  5  6  2  0
  6  7  1  0
  7  8  2  0
  8  9  1  0
  9 10  1  0
  6 11  1  0
 11 12  1  0
 12 13  1  0
 13 14  2  0
 13 15  1  0
 15 16  1  0
 16 17  1  0
 17 18  1  0
 17 19  1  0
 15 20  1  0
 20 21  1  0
 21 22  1  0
 22 23  1  0
  8  3  1  0
 21 11  1  0
 23  5  1  0
M  END
$$$$
