
     RDKit          3D

 14 13  0  0  0  0  0  0  0  0999 V2000
  -25.1169   23.1562  -28.3453 Br  0  0  0  0  0  0  0  0  0  0  0  0
  -25.1167   23.1552  -28.3455 Br  0  0  0  0  0  0  0  0  0  0  0  0
  -24.3609   19.7955  -27.8905 C   0  0  0  0  0  0  0  0  0  0  0  0
  -25.3790   20.6477  -27.7446 N   0  0  0  0  0  0  0  0  0  0  0  0
  -25.0406   21.8727  -28.2738 C   0  0  0  0  0  0  0  0  0  0  0  0
  -26.0218   22.9522  -28.2541 C   0  0  0  0  0  0  0  0  0  0  0  0
  -25.6232   24.2700  -28.7708 C   0  0  0  0  0  0  0  0  0  0  0  0
  -24.5165   24.8719  -27.9792 C   0  0  0  0  0  0  0  0  0  0  0  0
  -24.0625   26.2065  -28.5142 C   0  0  0  0  0  0  0  0  0  0  0  0
  -25.1416   26.9668  -29.0960 N   0  0  0  0  0  0  0  0  0  0  0  0
  -26.4484   26.6285  -28.5820 C   0  0  0  0  0  0  0  0  0  0  0  0
  -26.8328   25.1864  -28.7855 C   0  0  0  0  0  0  0  0  0  0  0  0
  -23.7797   21.7075  -28.7391 C   0  0  0  0  0  0  0  0  0  0  0  0
  -23.3543   20.4312  -28.5062 N   0  0  0  0  0  0  0  0  0  0  0  0
  3  4  2  0
  4  5  1  0
  5  6  1  0
  6  7  1  0
  7  8  1  0
  8  9  1  0
  9 10  1  0
 10 11  1  0
 11 12  1  0
  5 13  2  0
 13 14  1  0
 14  3  1  0
 12  7  1  0
M  END
$$$$
