
     RDKit          3D

 28 31  0  0  0  0  0  0  0  0999 V2000
  -22.8956   19.2346  -38.2406 N   0  0  0  0  0  0  0  0  0  0  0  0
  -21.5735   19.0493  -37.8321 N   0  0  0  0  0  0  0  0  0  0  0  0
  -21.3283   18.3689  -36.6122 C   0  0  0  0  0  0  0  0  0  0  0  0
  -21.8319   17.2512  -36.3883 O   0  0  0  0  0  0  0  0  0  0  0  0
  -20.4563   19.0065  -35.5820 C   0  0  0  0  0  0  0  0  0  0  0  0
  -18.9611   18.0403  -35.2896 S   0  0  0  0  0  0  0  0  0  0  0  0
  -17.8022   18.2925  -36.6008 C   0  0  0  0  0  0  0  0  0  0  0  0
  -18.0689   18.9153  -37.7634 N   0  0  0  0  0  0  0  0  0  0  0  0
  -17.1394   19.0626  -38.6963 C   0  0  0  0  0  0  0  0  0  0  0  0
  -17.1274   19.8282  -40.3185 S   0  0  0  0  0  0  0  0  0  0  0  0
  -15.3948   19.4900  -40.7349 C   0  0  0  0  0  0  0  0  0  0  0  0
  -14.9739   18.8113  -39.5768 C   0  0  0  0  0  0  0  0  0  0  0  0
  -13.5469   18.3279  -39.6164 C   0  0  0  0  0  0  0  0  0  0  0  0
  -13.2557   17.2983  -40.4666 C   0  0  0  0  0  0  0  0  0  0  0  0
  -11.9451   16.8004  -40.5218 C   0  0  0  0  0  0  0  0  0  0  0  0
  -10.9421   17.3323  -39.7317 C   0  0  0  0  0  0  0  0  0  0  0  0
  -11.2656   18.3637  -38.8894 C   0  0  0  0  0  0  0  0  0  0  0  0
  -12.5694   18.8655  -38.8279 C   0  0  0  0  0  0  0  0  0  0  0  0
  -15.8378   18.6106  -38.5862 C   0  0  0  0  0  0  0  0  0  0  0  0
  -15.5762   17.9584  -37.3518 C   0  0  0  0  0  0  0  0  0  0  0  0
  -14.4353   17.4869  -37.0801 O   0  0  0  0  0  0  0  0  0  0  0  0
  -16.5425   17.8309  -36.4386 N   0  0  0  0  0  0  0  0  0  0  0  0
  -16.1896   17.1505  -35.2099 C   0  0  0  0  0  0  0  0  0  0  0  0
  -16.3715   15.7899  -35.0881 C   0  0  0  0  0  0  0  0  0  0  0  0
  -16.0432   15.1040  -33.9357 C   0  0  0  0  0  0  0  0  0  0  0  0
  -15.5209   15.8217  -32.8918 C   0  0  0  0  0  0  0  0  0  0  0  0
  -15.3355   17.1769  -33.0005 C   0  0  0  0  0  0  0  0  0  0  0  0
  -15.6634   17.8477  -34.1454 C   0  0  0  0  0  0  0  0  0  0  0  0
  1  2  1  0
  2  3  1  0
  3  4  2  0
  3  5  1  0
  5  6  1  0
  6  7  1  0
  7  8  2  0
  8  9  1  0
  9 10  1  0
 10 11  1  0
 11 12  2  0
 12 13  1  0
 13 14  2  0
 14 15  1  0
 15 16  2  0
 16 17  1  0
 17 18  2  0
 12 19  1  0
 19 20  1  0
 20 21  2  0
 20 22  1  0
 22 23  1  0
 23 24  2  0
 24 25  1  0
 25 26  2  0
 26 27  1  0
 27 28  2  0
 22  7  1  0
 28 23  1  0
 19  9  2  0
 18 13  1  0
M  END
$$$$
