
     RDKit          3D

 41 45  0  0  0  0  0  0  0  0999 V2000
  -20.3459   33.2954  -20.5850 C   0  0  0  0  0  0  0  0  0  0  0  0
  -20.4215   34.4451  -19.7961 O   0  0  0  0  0  0  0  0  0  0  0  0
  -20.3364   35.6915  -20.3937 C   0  0  0  0  0  0  0  0  0  0  0  0
  -20.2163   35.7863  -21.7256 N   0  0  0  0  0  0  0  0  0  0  0  0
  -20.1289   36.9641  -22.3737 C   0  0  0  0  0  0  0  0  0  0  0  0
  -20.1584   38.1638  -21.7066 C   0  0  0  0  0  0  0  0  0  0  0  0
  -20.0947   39.4586  -22.3570 C   0  0  0  0  0  0  0  0  0  0  0  0
  -19.3431   40.4677  -21.8740 N   0  0  0  0  0  0  0  0  0  0  0  0
  -19.3018   41.6653  -22.4786 C   0  0  0  0  0  0  0  0  0  0  0  0
  -18.5094   42.6889  -21.9422 N   0  0  0  0  0  0  0  0  0  0  0  0
  -18.2393   43.9416  -22.6215 C   0  0  0  0  0  0  0  0  0  0  0  0
  -17.0022   44.5207  -21.9695 C   0  0  0  0  0  0  0  0  0  0  0  0
  -16.0005   43.5809  -21.7683 O   0  0  0  0  0  0  0  0  0  0  0  0
  -16.3723   42.5334  -20.9344 C   0  0  0  0  0  0  0  0  0  0  0  0
  -17.8626   42.5636  -20.6217 C   0  0  0  0  0  0  0  0  0  0  0  0
  -20.0026   41.9308  -23.5963 N   0  0  0  0  0  0  0  0  0  0  0  0
  -20.7704   40.9679  -24.1252 C   0  0  0  0  0  0  0  0  0  0  0  0
  -21.4797   41.2951  -25.2617 C   0  0  0  0  0  0  0  0  0  0  0  0
  -21.4204   42.6059  -25.9259 C   0  0  0  0  0  0  0  0  0  0  0  0
  -22.6515   43.3242  -25.9780 N   0  0  0  0  0  0  0  0  0  0  0  0
  -22.4110   44.7208  -25.8127 C   0  0  0  0  0  0  0  0  0  0  0  0
  -22.3723   45.5336  -27.0576 C   0  0  0  0  0  0  0  0  0  0  0  0
  -22.3501   44.7464  -28.3239 C   0  0  0  0  0  0  0  0  0  0  0  0
  -22.7054   45.6673  -29.4795 C   0  0  0  0  0  0  0  0  0  0  0  0
  -21.7935   46.8454  -29.6001 C   0  0  0  0  0  0  0  0  0  0  0  0
  -22.6705   44.9108  -30.8029 C   0  0  0  0  0  0  0  0  0  0  0  0
  -24.0335   46.0648  -29.2660 O   0  0  0  0  0  0  0  0  0  0  0  0
  -23.3519   43.6218  -28.3316 C   0  0  0  0  0  0  0  0  0  0  0  0
  -23.5431   42.9496  -27.0171 C   0  0  0  0  0  0  0  0  0  0  0  0
  -22.2899   40.3039  -25.7998 C   0  0  0  0  0  0  0  0  0  0  0  0
  -22.3690   39.0642  -25.2146 C   0  0  0  0  0  0  0  0  0  0  0  0
  -23.1657   38.0835  -25.7408 F   0  0  0  0  0  0  0  0  0  0  0  0
  -21.6438   38.7655  -24.0745 C   0  0  0  0  0  0  0  0  0  0  0  0
  -20.8264   39.7180  -23.5091 C   0  0  0  0  0  0  0  0  0  0  0  0
  -20.2832   38.0627  -20.3125 C   0  0  0  0  0  0  0  0  0  0  0  0
  -20.3721   36.8598  -19.6490 C   0  0  0  0  0  0  0  0  0  0  0  0
  -20.5019   36.7672  -18.2458 N   0  0  0  0  0  0  0  0  0  0  0  0
  -20.6483   38.1533  -17.2383 S   0  0  0  0  0  6  0  0  0  0  0  0
  -19.0442   38.9571  -17.2052 C   0  0  0  0  0  0  0  0  0  0  0  0
  -21.0329   37.7386  -15.8421 O   0  0  0  0  0  0  0  0  0  0  0  0
  -21.6763   39.0961  -17.7960 O   0  0  0  0  0  0  0  0  0  0  0  0
  1  2  1  0
  2  3  1  0
  3  4  2  0
  4  5  1  0
  5  6  2  0
  6  7  1  0
  7  8  2  0
  8  9  1  0
  9 10  1  0
 10 11  1  0
 11 12  1  0
 12 13  1  0
 13 14  1  0
 14 15  1  0
  9 16  2  0
 16 17  1  0
 17 18  2  0
 18 19  1  0
 19 20  1  0
 20 21  1  0
 21 22  1  0
 22 23  1  0
 23 24  1  0
 24 25  1  0
 24 26  1  0
 24 27  1  0
 23 28  1  0
 28 29  1  0
 18 30  1  0
 30 31  2  0
 31 32  1  0
 31 33  1  0
 33 34  2  0
  6 35  1  0
 35 36  2  0
 36 37  1  0
 37 38  1  0
 38 39  1  0
 38 40  2  0
 38 41  2  0
 36  3  1  0
 34  7  1  0
 15 10  1  0
 34 17  1  0
 29 20  1  0
M  END
$$$$
