
     RDKit          3D

 24 24  0  0  0  0  0  0  0  0999 V2000
  -16.5607   19.2909  -43.3542 N   0  0  0  0  0  0  0  0  0  0  0  0
  -17.6059   20.1906  -42.8469 C   0  0  1  0  0  0  0  0  0  0  0  0
  -17.2080   20.7402  -41.4891 C   0  0  0  0  0  0  0  0  0  0  0  0
  -17.0107   19.6762  -40.4903 C   0  0  0  0  0  0  0  0  0  0  0  0
  -15.7925   19.0596  -40.2778 C   0  0  0  0  0  0  0  0  0  0  0  0
  -15.6489   18.0646  -39.3303 C   0  0  0  0  0  0  0  0  0  0  0  0
  -13.7616   17.1687  -39.0605 I   0  0  0  0  0  0  0  0  0  0  0  0
  -16.7465   17.6711  -38.5726 C   0  0  0  0  0  0  0  0  0  0  0  0
  -16.5975   16.6826  -37.6333 O   0  0  0  0  0  0  0  0  0  0  0  0
  -16.2500   16.9184  -36.3093 C   0  0  0  0  0  0  0  0  0  0  0  0
  -16.0268   18.1976  -35.8424 C   0  0  0  0  0  0  0  0  0  0  0  0
  -15.6800   18.3871  -34.5059 C   0  0  0  0  0  0  0  0  0  0  0  0
  -15.5524   17.3232  -33.6291 C   0  0  0  0  0  0  0  0  0  0  0  0
  -15.2036   17.5303  -32.2905 O   0  0  0  0  0  0  0  0  0  0  0  0
  -15.7842   16.0564  -34.1352 C   0  0  0  0  0  0  0  0  0  0  0  0
  -15.5985   14.4230  -32.8303 I   0  0  0  0  0  0  0  0  0  0  0  0
  -16.1307   15.8383  -35.4606 C   0  0  0  0  0  0  0  0  0  0  0  0
  -17.9523   18.2643  -38.7659 C   0  0  0  0  0  0  0  0  0  0  0  0
  -19.6439   17.6996  -37.6400 I   0  0  0  0  0  0  0  0  0  0  0  0
  -18.0710   19.2558  -39.7181 C   0  0  0  0  0  0  0  0  0  0  0  0
  -17.7081   21.2981  -43.8148 C   0  0  0  0  0  0  0  0  0  0  0  0
  -17.2423   22.4163  -43.5272 O   0  0  0  0  0  0  0  0  0  0  0  0
  -18.3151   21.1024  -45.0334 O   0  0  0  0  0  1  0  0  0  0  0  0
  -16.5938   18.6286  -38.7931 Na  0  0  0  0  0 15  0  0  0  0  0  0
  2  1  1  6
  2  3  1  0
  3  4  1  0
  4  5  2  0
  5  6  1  0
  6  7  1  0
  6  8  2  0
  8  9  1  0
  9 10  1  0
 10 11  2  0
 11 12  1  0
 12 13  2  0
 13 14  1  0
 13 15  1  0
 15 16  1  0
 15 17  2  0
  8 18  1  0
 18 19  1  0
 18 20  2  0
  2 21  1  0
 21 22  2  0
 21 23  1  0
 20  4  1  0
 17 10  1  0
M  CHG  2  23  -1  24   1
M  END
$$$$
