
     RDKit          3D

 36 40  0  0  0  0  0  0  0  0999 V2000
  -17.3325   40.7965  -23.7861 O   0  0  0  0  0  0  0  0  0  0  0  0
  -18.0868   41.2558  -22.8885 C   0  0  0  0  0  0  0  0  0  0  0  0
  -18.3760   42.6342  -22.9462 N   0  0  0  0  0  0  0  0  0  0  0  0
  -18.7299   43.2565  -24.1970 C   0  0  0  0  0  0  0  0  0  0  0  0
  -19.1297   44.6955  -23.9489 C   0  0  0  0  0  0  0  0  0  0  0  0
  -17.9416   45.4391  -23.3734 C   0  0  0  0  0  0  0  0  0  0  0  0
  -17.1218   45.1803  -22.4662 N   0  0  0  0  0  0  0  0  0  0  0  0
  -16.1515   45.9673  -22.1145 C   0  0  0  0  0  0  0  0  0  0  0  0
  -15.1884   45.6208  -21.0211 C   0  0  0  0  0  0  0  0  0  0  0  0
  -14.0678   46.3708  -20.8055 C   0  0  0  0  0  0  0  0  0  0  0  0
  -13.1647   46.0650  -19.7967 C   0  0  0  0  0  0  0  0  0  0  0  0
  -13.4130   44.9801  -19.0014 C   0  0  0  0  0  0  0  0  0  0  0  0
  -14.5267   44.1985  -19.1825 C   0  0  0  0  0  0  0  0  0  0  0  0
  -15.3971   44.5376  -20.1955 C   0  0  0  0  0  0  0  0  0  0  0  0
  -16.0103   47.1607  -22.7756 C   0  0  0  0  0  0  0  0  0  0  0  0
  -17.4218   47.0097  -23.9434 S   0  0  0  0  0  0  0  0  0  0  0  0
  -19.6150   45.3709  -25.1904 C   0  0  0  0  0  0  0  0  0  0  0  0
  -19.8182   46.8462  -24.8766 C   0  0  0  0  0  0  0  0  0  0  0  0
  -20.3340   47.0368  -23.6157 O   0  0  0  0  0  0  0  0  0  0  0  0
  -21.0501   45.9589  -23.1493 C   0  0  0  0  0  0  0  0  0  0  0  0
  -20.1973   44.7345  -22.8943 C   0  0  0  0  0  0  0  0  0  0  0  0
  -18.6229   40.4049  -21.8575 C   0  0  0  0  0  0  0  0  0  0  0  0
  -19.1541   41.0035  -20.7188 C   0  0  0  0  0  0  0  0  0  0  0  0
  -19.6692   40.2151  -19.7330 C   0  0  0  0  0  0  0  0  0  0  0  0
  -19.6788   38.8397  -19.8323 C   0  0  0  0  0  0  0  0  0  0  0  0
  -19.1556   38.2110  -20.9576 C   0  0  0  0  0  0  0  0  0  0  0  0
  -19.1620   36.7645  -21.0766 C   0  0  0  0  0  0  0  0  0  0  0  0
  -19.9712   35.8982  -20.4501 N   0  0  0  0  0  0  0  0  0  0  0  0
  -19.6596   34.6860  -20.8240 O   0  0  0  0  0  0  0  0  0  0  0  0
  -18.6701   34.7081  -21.6792 C   0  0  0  0  0  0  0  0  0  0  0  0
  -18.0481   33.5294  -22.3193 C   0  0  0  0  0  0  0  0  0  0  0  0
  -16.7707   33.7639  -22.7655 F   0  0  0  0  0  0  0  0  0  0  0  0
  -18.7900   33.1381  -23.4373 F   0  0  0  0  0  0  0  0  0  0  0  0
  -17.9990   32.5078  -21.3878 F   0  0  0  0  0  0  0  0  0  0  0  0
  -18.3537   36.0038  -21.8422 N   0  0  0  0  0  0  0  0  0  0  0  0
  -18.6421   39.0346  -21.9371 C   0  0  0  0  0  0  0  0  0  0  0  0
  1  2  2  0
  2  3  1  0
  3  4  1  0
  4  5  1  0
  5  6  1  0
  6  7  2  0
  7  8  1  0
  8  9  1  0
  9 10  2  0
 10 11  1  0
 11 12  2  0
 12 13  1  0
 13 14  2  0
  8 15  2  0
 15 16  1  0
  5 17  1  0
 17 18  1  0
 18 19  1  0
 19 20  1  0
 20 21  1  0
  2 22  1  0
 22 23  2  0
 23 24  1  0
 24 25  2  0
 25 26  1  0
 26 27  1  0
 27 28  2  0
 28 29  1  0
 29 30  1  0
 30 31  1  0
 31 32  1  0
 31 33  1  0
 31 34  1  0
 30 35  2  0
 26 36  2  0
 21  5  1  0
 36 22  1  0
 16  6  1  0
 35 27  1  0
 14  9  1  0
M  END
$$$$
