
     RDKit          3D

 21 22  0  0  0  0  0  0  0  0999 V2000
  -20.2259   37.4770  -20.2860 O   0  0  0  0  0  0  0  0  0  0  0  0
  -19.7523   38.5465  -19.8379 C   0  0  0  0  0  0  0  0  0  0  0  0
  -20.0006   38.8430  -18.4772 N   0  0  0  0  0  0  0  0  0  0  0  0
  -20.7224   37.9821  -17.6843 O   0  0  0  0  0  0  0  0  0  0  0  0
  -18.9786   39.4152  -20.7415 C   0  0  0  0  0  0  0  0  0  0  0  0
  -18.2260   38.9194  -21.7687 C   0  0  0  0  0  0  0  0  0  0  0  0
  -17.5072   39.7436  -22.6061 C   0  0  0  0  0  0  0  0  0  0  0  0
  -17.5194   41.1324  -22.4367 C   0  0  0  0  0  0  0  0  0  0  0  0
  -18.2749   41.6340  -21.4052 C   0  0  0  0  0  0  0  0  0  0  0  0
  -18.3284   43.0684  -21.1778 C   0  0  0  0  0  0  0  0  0  0  0  0
  -19.4284   43.5699  -20.8419 O   0  0  0  0  0  0  0  0  0  0  0  0
  -17.1988   43.8857  -21.3233 N   0  0  0  0  0  0  0  0  0  0  0  0
  -16.5333   44.4957  -20.1598 C   0  0  0  0  0  0  0  0  0  0  0  0
  -15.2247   43.8139  -19.9650 C   0  0  0  0  0  0  0  0  0  0  0  0
  -14.2775   44.6205  -19.1446 C   0  0  0  0  0  0  0  0  0  0  0  0
  -13.7226   45.7431  -19.7305 C   0  0  0  0  0  0  0  0  0  0  0  0
  -12.8402   46.5638  -19.0797 C   0  0  0  0  0  0  0  0  0  0  0  0
  -12.5144   46.2237  -17.7841 C   0  0  0  0  0  0  0  0  0  0  0  0
  -13.0615   45.0951  -17.1706 C   0  0  0  0  0  0  0  0  0  0  0  0
  -13.9455   44.2939  -17.8571 C   0  0  0  0  0  0  0  0  0  0  0  0
  -18.9922   40.7767  -20.5734 C   0  0  0  0  0  0  0  0  0  0  0  0
  1  2  2  0
  2  3  1  0
  3  4  1  0
  2  5  1  0
  5  6  2  0
  6  7  1  0
  7  8  2  0
  8  9  1  0
  9 10  1  0
 10 11  2  0
 10 12  1  0
 12 13  1  0
 13 14  1  0
 14 15  1  0
 15 16  2  0
 16 17  1  0
 17 18  2  0
 18 19  1  0
 19 20  2  0
  9 21  2  0
 21  5  1  0
 20 15  1  0
M  END
$$$$
