
     RDKit          3D

 34 37  0  0  0  0  0  0  0  0999 V2000
  -16.1866   17.3087  -34.2138 C   0  0  0  0  0  0  0  0  0  0  0  0
  -15.4402   16.4575  -33.2561 C   0  0  0  0  0  0  0  0  0  0  0  0
  -14.1363   16.0777  -33.4870 C   0  0  0  0  0  0  0  0  0  0  0  0
  -13.4646   15.3071  -32.6173 N   0  0  0  0  0  0  0  0  0  0  0  0
  -14.0489   14.8613  -31.4546 C   0  0  0  0  0  0  0  0  0  0  0  0
  -13.3338   14.0584  -30.5588 N   0  0  0  0  0  0  0  0  0  0  0  0
  -13.7711   13.4922  -29.3420 C   0  0  0  0  0  0  0  0  0  0  0  0
  -15.0821   13.4617  -28.9444 C   0  0  0  0  0  0  0  0  0  0  0  0
  -15.4733   12.8946  -27.7376 C   0  0  0  0  0  0  0  0  0  0  0  0
  -14.5652   12.3372  -26.8850 C   0  0  0  0  0  0  0  0  0  0  0  0
  -14.9092   11.7787  -25.7071 F   0  0  0  0  0  0  0  0  0  0  0  0
  -13.2300   12.3639  -27.2815 C   0  0  0  0  0  0  0  0  0  0  0  0
  -12.8468   12.9186  -28.4620 C   0  0  0  0  0  0  0  0  0  0  0  0
  -11.1633   12.9260  -28.9107 Cl  0  0  0  0  0  0  0  0  0  0  0  0
  -15.2971   15.2464  -31.2705 N   0  0  0  0  0  0  0  0  0  0  0  0
  -16.0252   16.0143  -32.0972 C   0  0  0  0  0  0  0  0  0  0  0  0
  -17.4055   16.3740  -31.7801 C   0  0  0  0  0  0  0  0  0  0  0  0
  -18.1966   17.2628  -32.4848 C   0  0  0  0  0  0  0  0  0  0  0  0
  -19.4191   17.3338  -31.8823 N   0  0  0  0  0  0  0  0  0  0  0  0
  -19.4452   16.5225  -30.8139 C   0  0  0  0  0  0  0  0  0  0  0  0
  -20.6014   16.3590  -29.9442 C   0  0  0  0  0  0  0  0  0  0  0  0
  -20.4998   16.2492  -28.6960 O   0  0  0  0  0  0  0  0  0  0  0  0
  -21.9377   16.3130  -30.4649 N   0  0  0  0  0  0  0  0  0  0  0  0
  -23.1085   16.3039  -29.6255 C   0  0  2  0  0  0  0  0  0  0  0  0
  -24.0918   15.2240  -30.0186 C   0  0  0  0  0  0  0  0  0  0  0  0
  -23.7009   14.6930  -31.2425 O   0  0  0  0  0  0  0  0  0  0  0  0
  -23.7925   17.6226  -29.5975 C   0  0  0  0  0  0  0  0  0  0  0  0
  -24.0358   18.3516  -30.7430 C   0  0  0  0  0  0  0  0  0  0  0  0
  -24.6755   19.5820  -30.7045 C   0  0  0  0  0  0  0  0  0  0  0  0
  -25.0958   20.1275  -29.5106 C   0  0  0  0  0  0  0  0  0  0  0  0
  -24.8574   19.4068  -28.3601 C   0  0  0  0  0  0  0  0  0  0  0  0
  -25.3843   20.0847  -26.8376 Cl  0  0  0  0  0  0  0  0  0  0  0  0
  -24.2208   18.1849  -28.4092 C   0  0  0  0  0  0  0  0  0  0  0  0
  -18.2080   15.9289  -30.7460 C   0  0  0  0  0  0  0  0  0  0  0  0
  1  2  1  0
  2  3  2  0
  3  4  1  0
  4  5  2  0
  5  6  1  0
  6  7  1  0
  7  8  2  0
  8  9  1  0
  9 10  2  0
 10 11  1  0
 10 12  1  0
 12 13  2  0
 13 14  1  0
  5 15  1  0
 15 16  2  0
 16 17  1  0
 17 18  2  0
 18 19  1  0
 19 20  1  0
 20 21  1  0
 21 22  2  0
 21 23  1  0
 23 24  1  0
 24 25  1  6
 25 26  1  0
 24 27  1  0
 27 28  2  0
 28 29  1  0
 29 30  2  0
 30 31  1  0
 31 32  1  0
 31 33  2  0
 20 34  2  0
 16  2  1  0
 34 17  1  0
 13  7  1  0
 33 27  1  0
M  END
$$$$
