
     RDKit          3D

 33 37  0  0  0  0  0  0  0  0999 V2000
  -19.3557   50.0148  -16.1396 C   0  0  0  0  0  0  0  0  0  0  0  0
  -17.9942   49.7505  -16.7244 C   0  0  0  0  0  0  0  0  0  0  0  0
  -17.1944   48.9994  -15.7820 N   0  0  0  0  0  0  0  0  0  0  0  0
  -15.8204   49.4298  -15.7563 C   0  0  0  0  0  0  0  0  0  0  0  0
  -15.0261   48.8661  -16.9173 C   0  0  0  0  0  0  0  0  0  0  0  0
  -15.5692   47.6891  -17.4485 N   0  0  0  0  0  0  0  0  0  0  0  0
  -15.2217   47.2614  -18.7347 C   0  0  0  0  0  0  0  0  0  0  0  0
  -15.7436   45.8832  -18.9617 C   0  0  0  0  0  0  0  0  0  0  0  0
  -16.9543   45.7179  -19.5994 C   0  0  0  0  0  0  0  0  0  0  0  0
  -17.4958   44.4639  -19.8385 C   0  0  0  0  0  0  0  0  0  0  0  0
  -16.8018   43.3541  -19.4258 C   0  0  0  0  0  0  0  0  0  0  0  0
  -17.3393   42.0345  -19.6583 C   0  0  0  0  0  0  0  0  0  0  0  0
  -17.8123   41.5732  -20.8650 C   0  0  0  0  0  0  0  0  0  0  0  0
  -18.2319   40.2592  -20.6485 C   0  0  0  0  0  0  0  0  0  0  0  0
  -18.7798   39.3473  -21.5105 C   0  0  0  0  0  0  0  0  0  0  0  0
  -18.9920   39.7054  -22.8578 N   0  0  0  0  0  0  0  0  0  0  0  0
  -19.4807   38.7070  -23.7992 C   0  0  2  0  0  0  0  0  0  0  0  0
  -19.2155   39.1494  -25.2163 C   0  0  0  0  0  0  0  0  0  0  0  0
  -20.9453   38.5855  -23.5346 C   0  0  0  0  0  0  0  0  0  0  0  0
  -21.5946   37.3790  -23.5631 C   0  0  0  0  0  0  0  0  0  0  0  0
  -22.9556   37.2578  -23.3189 C   0  0  0  0  0  0  0  0  0  0  0  0
  -23.6844   38.3915  -23.0368 C   0  0  0  0  0  0  0  0  0  0  0  0
  -23.0445   39.6292  -23.0025 C   0  0  0  0  0  0  0  0  0  0  0  0
  -21.6938   39.7039  -23.2507 C   0  0  0  0  0  0  0  0  0  0  0  0
  -19.0892   38.1369  -21.0096 N   0  0  0  0  0  0  0  0  0  0  0  0
  -18.8579   37.8535  -19.6957 C   0  0  0  0  0  0  0  0  0  0  0  0
  -18.3208   38.7546  -18.8604 N   0  0  0  0  0  0  0  0  0  0  0  0
  -17.9983   39.9643  -19.3089 C   0  0  0  0  0  0  0  0  0  0  0  0
  -17.4598   41.0509  -18.7340 N   0  0  0  0  0  0  0  0  0  0  0  0
  -15.5976   43.5038  -18.7911 C   0  0  0  0  0  0  0  0  0  0  0  0
  -15.0473   44.7680  -18.5477 C   0  0  0  0  0  0  0  0  0  0  0  0
  -16.3345   46.8386  -16.6350 C   0  0  0  0  0  0  0  0  0  0  0  0
  -17.3872   47.5864  -15.8738 C   0  0  0  0  0  0  0  0  0  0  0  0
  1  2  1  0
  2  3  1  0
  3  4  1  0
  4  5  1  0
  5  6  1  0
  6  7  1  0
  7  8  1  0
  8  9  2  0
  9 10  1  0
 10 11  2  0
 11 12  1  0
 12 13  2  0
 13 14  1  0
 14 15  2  0
 15 16  1  0
 16 17  1  0
 17 18  1  6
 17 19  1  0
 19 20  2  0
 20 21  1  0
 21 22  2  0
 22 23  1  0
 23 24  2  0
 15 25  1  0
 25 26  2  0
 26 27  1  0
 27 28  2  0
 28 29  1  0
 11 30  1  0
 30 31  2  0
  6 32  1  0
 32 33  1  0
 33  3  1  0
 31  8  1  0
 29 12  1  0
 28 14  1  0
 24 19  1  0
M  END
$$$$
