
     RDKit          3D

 18 19  0  0  0  0  0  0  0  0999 V2000
  -13.5765   16.4515  -40.4069 O   0  0  0  0  0  0  0  0  0  0  0  0
  -14.0117   17.6545  -40.5986 C   0  0  0  0  0  0  0  0  0  0  0  0
  -13.1268   18.5488  -41.2486 C   0  0  0  0  0  0  0  0  0  0  0  0
  -13.5925   19.7170  -41.5552 O   0  0  0  0  0  0  0  0  0  0  0  0
  -11.7490   18.3121  -41.6157 C   0  0  0  0  0  0  0  0  0  0  0  0
  -10.7546   18.2611  -40.6085 C   0  0  0  0  0  0  0  0  0  0  0  0
   -9.4360   18.0379  -40.9228 C   0  0  0  0  0  0  0  0  0  0  0  0
   -9.0147   17.8538  -42.2190 C   0  0  0  0  0  0  0  0  0  0  0  0
   -7.3428   17.5679  -42.6494 Cl  0  0  0  0  0  0  0  0  0  0  0  0
   -9.9715   17.9028  -43.1888 C   0  0  0  0  0  0  0  0  0  0  0  0
  -11.3391   18.1311  -42.8966 C   0  0  0  0  0  0  0  0  0  0  0  0
  -15.3582   17.9049  -40.1111 C   0  0  0  0  0  0  0  0  0  0  0  0
  -15.6841   17.8325  -38.8007 C   0  0  0  0  0  0  0  0  0  0  0  0
  -16.9921   18.0770  -38.3389 C   0  0  0  0  0  0  0  0  0  0  0  0
  -17.9640   18.3995  -39.2569 C   0  0  0  0  0  0  0  0  0  0  0  0
  -19.5842   18.7005  -38.6687 Cl  0  0  0  0  0  0  0  0  0  0  0  0
  -17.6653   18.4806  -40.5899 C   0  0  0  0  0  0  0  0  0  0  0  0
  -16.3815   18.2385  -41.0248 C   0  0  0  0  0  0  0  0  0  0  0  0
  1  2  2  0
  2  3  1  0
  3  4  2  0
  3  5  1  0
  5  6  2  0
  6  7  1  0
  7  8  2  0
  8  9  1  0
  8 10  1  0
 10 11  2  0
  2 12  1  0
 12 13  2  0
 13 14  1  0
 14 15  2  0
 15 16  1  0
 15 17  1  0
 17 18  2  0
 11  5  1  0
 18 12  1  0
M  END
$$$$
