
     RDKit          3D

 18 19  0  0  0  0  0  0  0  0999 V2000
  -22.7371   12.1280  -20.9336 C   0  0  0  0  0  0  0  0  0  0  0  0
  -23.0010   12.6245  -22.3323 C   0  0  0  0  0  0  0  0  0  0  0  0
  -24.1040   13.5046  -22.4024 O   0  0  0  0  0  0  0  0  0  0  0  0
  -24.5110   14.1525  -23.5335 C   0  0  0  0  0  0  0  0  0  0  0  0
  -24.1450   13.7349  -24.6448 O   0  0  0  0  0  0  0  0  0  0  0  0
  -25.3851   15.3520  -23.4848 C   0  0  0  0  0  0  0  0  0  0  0  0
  -24.9258   16.6509  -23.5511 C   0  0  0  0  0  0  0  0  0  0  0  0
  -25.9654   17.4736  -23.4778 N   0  0  0  0  0  0  0  0  0  0  0  0
  -27.0647   16.7226  -23.3673 C   0  0  0  0  0  0  0  0  0  0  0  0
  -26.7113   15.4158  -23.3715 N   0  0  0  0  0  0  0  0  0  0  0  0
  -27.6524   14.3291  -23.2687 C   0  0  2  0  0  0  0  0  0  0  0  0
  -28.9634   14.7182  -23.9681 C   0  0  0  0  0  0  0  0  0  0  0  0
  -28.0145   14.0530  -21.8405 C   0  0  0  0  0  0  0  0  0  0  0  0
  -28.1044   12.8001  -21.2999 C   0  0  0  0  0  0  0  0  0  0  0  0
  -28.4485   12.6286  -19.9568 C   0  0  0  0  0  0  0  0  0  0  0  0
  -28.7084   13.7019  -19.1316 C   0  0  0  0  0  0  0  0  0  0  0  0
  -28.6167   14.9627  -19.6807 C   0  0  0  0  0  0  0  0  0  0  0  0
  -28.2740   15.1328  -21.0181 C   0  0  0  0  0  0  0  0  0  0  0  0
  1  2  1  0
  2  3  1  0
  3  4  1  0
  4  5  2  0
  4  6  1  0
  6  7  2  0
  7  8  1  0
  8  9  2  0
  9 10  1  0
 10 11  1  0
 11 12  1  6
 11 13  1  0
 13 14  2  0
 14 15  1  0
 15 16  2  0
 16 17  1  0
 17 18  2  0
 10  6  1  0
 18 13  1  0
M  END
$$$$
