
     RDKit          3D

 29 31  0  0  0  0  0  0  0  0999 V2000
  -15.5109   16.6466  -34.6636 C   0  0  0  0  0  0  0  0  0  0  0  0
  -16.3944   17.1343  -33.5463 C   0  0  0  0  0  0  0  0  0  0  0  0
  -17.4827   16.2354  -33.1599 C   0  0  0  0  0  0  0  0  0  0  0  0
  -18.6510   16.1746  -34.0804 C   0  0  0  0  0  0  0  0  0  0  0  0
  -19.4483   14.9249  -34.1576 C   0  0  0  0  0  0  0  0  0  0  0  0
  -17.8748   16.2314  -31.7639 N   0  0  0  0  0  0  0  0  0  0  0  0
  -18.9642   16.9566  -31.3618 C   0  0  0  0  0  0  0  0  0  0  0  0
  -19.1588   16.8050  -30.0087 C   0  0  0  0  0  0  0  0  0  0  0  0
  -18.1774   15.9777  -29.5679 C   0  0  0  0  0  0  0  0  0  0  0  0
  -17.8467   15.4599  -28.3349 C   0  0  0  0  0  0  0  0  0  0  0  0
  -18.6545   15.7223  -27.1280 C   0  0  0  0  0  0  0  0  0  0  0  0
  -19.6827   16.4102  -27.3409 O   0  0  0  0  0  0  0  0  0  0  0  0
  -18.3699   15.2692  -25.8379 N   0  0  0  0  0  0  0  0  0  0  0  0
  -18.9638   15.5056  -24.5823 C   0  0  0  0  0  0  0  0  0  0  0  0
  -20.1279   14.8369  -24.0728 C   0  0  0  0  0  0  0  0  0  0  0  0
  -21.3825   15.2986  -23.9729 C   0  0  0  0  0  0  0  0  0  0  0  0
  -21.7620   16.6634  -24.4344 C   0  0  0  0  0  0  0  0  0  0  0  0
  -22.4567   14.5331  -23.4960 C   0  0  0  0  0  0  0  0  0  0  0  0
  -22.2449   13.2446  -23.1049 C   0  0  0  0  0  0  0  0  0  0  0  0
  -23.3685   12.4032  -22.6275 C   0  0  0  0  0  0  0  0  0  0  0  0
  -20.9860   12.7574  -23.1958 N   0  0  0  0  0  0  0  0  0  0  0  0
  -19.9740   13.4802  -23.6436 C   0  0  0  0  0  0  0  0  0  0  0  0
  -18.8392   12.9655  -23.6975 O   0  0  0  0  0  0  0  0  0  0  0  0
  -16.7650   14.6188  -28.1865 C   0  0  0  0  0  0  0  0  0  0  0  0
  -15.9898   14.2764  -29.2603 C   0  0  0  0  0  0  0  0  0  0  0  0
  -14.8520   13.3950  -29.1659 C   0  0  0  0  0  0  0  0  0  0  0  0
  -13.9437   12.6946  -29.0778 N   0  0  0  0  0  0  0  0  0  0  0  0
  -16.3290   14.8032  -30.5145 C   0  0  0  0  0  0  0  0  0  0  0  0
  -17.4031   15.6417  -30.6822 C   0  0  0  0  0  0  0  0  0  0  0  0
  1  2  1  0
  2  3  1  0
  3  4  1  0
  4  5  1  0
  3  6  1  0
  6  7  1  0
  7  8  2  0
  8  9  1  0
  9 10  2  0
 10 11  1  0
 11 12  2  0
 11 13  1  0
 13 14  1  0
 14 15  1  0
 15 16  2  0
 16 17  1  0
 16 18  1  0
 18 19  2  0
 19 20  1  0
 19 21  1  0
 21 22  1  0
 22 23  2  0
 10 24  1  0
 24 25  2  0
 25 26  1  0
 26 27  3  0
 25 28  1  0
 28 29  2  0
 29  6  1  0
 29  9  1  0
 22 15  1  0
M  END
$$$$
