
     RDKit          3D

 31 32  0  0  0  0  0  0  0  0999 V2000
  -23.1043   36.9712  -23.1352 C   0  0  0  0  0  0  0  0  0  0  0  0
  -21.8080   36.6575  -22.7456 O   0  0  0  0  0  0  0  0  0  0  0  0
  -21.3961   35.5035  -22.2135 N   0  0  0  0  0  0  0  0  0  0  0  0
  -20.2638   35.3125  -21.6429 C   0  0  0  0  0  0  0  0  0  0  0  0
  -19.2873   36.3517  -21.5119 C   0  0  0  0  0  0  0  0  0  0  0  0
  -18.1764   36.0700  -20.9544 O   0  0  0  0  0  0  0  0  0  0  0  0
  -19.4570   37.6966  -21.9567 N   0  0  0  0  0  0  0  0  0  0  0  0
  -18.3571   38.6299  -21.7459 C   0  0  2  0  0  0  0  0  0  0  0  0
  -18.7116   39.8770  -21.0441 C   0  0  0  0  0  0  0  0  0  0  0  0
  -18.8921   40.1623  -19.8412 O   0  0  0  0  0  0  0  0  0  0  0  0
  -18.7434   40.5279  -22.2989 N   0  0  0  0  0  0  0  0  0  0  0  0
  -19.2121   41.7156  -23.0038 C   0  0  0  0  0  0  0  0  0  0  0  0
  -18.7645   42.9689  -22.4597 C   0  0  0  0  0  0  0  0  0  0  0  0
  -18.9729   44.0744  -22.9142 O   0  0  0  0  0  0  0  0  0  0  0  0
  -18.0020   42.9801  -21.2704 O   0  0  0  0  0  1  0  0  0  0  0  0
  -19.9790   41.6009  -24.0654 C   0  0  0  0  0  0  0  0  0  0  0  0
  -20.5843   42.5599  -24.9319 C   0  0  0  0  0  0  0  0  0  0  0  0
  -20.5780   43.9225  -24.8910 O   0  0  0  0  0  0  0  0  0  0  0  0
  -21.3692   44.6940  -24.0141 C   0  0  0  0  0  0  0  0  0  0  0  0
  -21.3530   46.1693  -23.9778 C   0  0  0  0  0  0  0  0  0  0  0  0
  -22.1199   44.0233  -23.2331 O   0  0  0  0  0  0  0  0  0  0  0  0
  -20.3681   40.1457  -24.4301 C   0  0  0  0  0  0  0  0  0  0  0  0
  -18.8967   39.0963  -24.4758 S   0  0  0  0  0  0  0  0  0  0  0  0
  -18.0110   39.4635  -22.9550 C   0  0  2  0  0  0  0  0  0  0  0  0
  -19.9950   33.9297  -21.0839 C   0  0  0  0  0  0  0  0  0  0  0  0
  -18.7917   33.6645  -20.4460 C   0  0  0  0  0  0  0  0  0  0  0  0
  -19.1217   31.8827  -20.0155 S   0  0  0  0  0  0  0  0  0  0  0  0
  -20.7479   31.7894  -20.7331 C   0  0  0  0  0  0  0  0  0  0  0  0
  -21.6158   30.6361  -20.7532 N   0  0  0  0  0  0  0  0  0  0  0  0
  -20.8873   33.0213  -21.1986 N   0  0  0  0  0  0  0  0  0  0  0  0
  -20.2665   38.8666  -22.6154 Na  0  0  0  0  0 15  0  0  0  0  0  0
  1  2  1  0
  2  3  1  0
  3  4  2  0
  4  5  1  0
  5  6  2  0
  5  7  1  0
  8  7  1  6
  8  9  1  0
  9 10  2  0
  9 11  1  0
 11 12  1  0
 12 13  1  0
 13 14  2  0
 13 15  1  0
 12 16  2  0
 16 17  1  0
 17 18  1  0
 18 19  1  0
 19 20  1  0
 19 21  2  0
 16 22  1  0
 22 23  1  0
 24 23  1  6
  4 25  1  0
 25 26  2  0
 26 27  1  0
 27 28  1  0
 28 29  1  0
 28 30  2  0
 24  8  1  0
 30 25  1  0
 24 11  1  0
M  CHG  2  15  -1  31   1
M  END
$$$$
