
     RDKit          3D

 17 17  0  0  0  0  0  0  0  0999 V2000
   -0.6719   26.2582  -19.8005 C   0  0  0  0  0  0  0  0  0  0  0  0
    0.1736   25.9672  -21.0277 C   0  0  0  0  0  0  0  0  0  0  0  0
    1.6165   25.8458  -20.5925 C   0  0  0  0  0  0  0  0  0  0  0  0
    2.2680   24.6127  -21.1924 C   0  0  0  0  0  0  0  0  0  0  0  0
    2.1538   23.4158  -20.2995 C   0  0  0  0  0  0  0  0  0  0  0  0
    2.7688   22.2281  -20.9389 C   0  0  0  0  0  0  0  0  0  0  0  0
    2.8559   22.1980  -22.1478 O   0  0  0  0  0  0  0  0  0  0  0  0
    3.2812   21.0700  -20.1649 C   0  0  0  0  0  0  0  0  0  0  0  0
    2.6269   19.8441  -20.6373 C   0  0  0  0  0  0  0  0  0  0  0  0
    2.2699   19.0206  -19.7192 O   0  0  0  0  0  0  0  0  0  0  0  0
    2.3618   19.4994  -21.9883 N   0  0  0  0  0  0  0  0  0  0  0  0
    1.6992   18.2431  -22.2446 C   0  0  1  0  0  0  0  0  0  0  0  0
    0.1928   18.3174  -22.1469 C   0  0  0  0  0  0  0  0  0  0  0  0
   -0.1991   17.0726  -22.9489 C   0  0  0  0  0  0  0  0  0  0  0  0
    0.7417   17.1073  -24.0138 O   0  0  0  0  0  0  0  0  0  0  0  0
    1.8957   17.7629  -23.6198 C   0  0  0  0  0  0  0  0  0  0  0  0
    2.9402   17.9321  -24.2952 O   0  0  0  0  0  0  0  0  0  0  0  0
  1  2  1  0
  2  3  1  0
  3  4  1  0
  4  5  1  0
  5  6  1  0
  6  7  2  0
  6  8  1  0
  8  9  1  0
  9 10  2  0
  9 11  1  0
 12 11  1  6
 12 13  1  0
 13 14  1  0
 14 15  1  0
 15 16  1  0
 16 17  2  0
 16 12  1  0
M  END
$$$$
