
     RDKit          3D

 50 55  0  0  0  0  0  0  0  0999 V2000
  -17.3559   19.6785  -44.6800 C   0  0  0  0  0  0  0  0  0  0  0  0
  -16.3301   19.1045  -43.8788 O   0  0  0  0  0  0  0  0  0  0  0  0
  -16.4998   19.1602  -42.4827 C   0  0  0  0  0  0  0  0  0  0  0  0
  -16.2591   18.0468  -41.6951 C   0  0  0  0  0  0  0  0  0  0  0  0
  -16.4234   18.1088  -40.3689 N   0  0  0  0  0  0  0  0  0  0  0  0
  -16.8245   19.2393  -39.7467 C   0  0  0  0  0  0  0  0  0  0  0  0
  -16.9855   19.2109  -38.2921 C   0  0  0  0  0  0  0  0  0  0  0  0
  -16.6431   20.2821  -37.5015 C   0  0  0  0  0  0  0  0  0  0  0  0
  -16.8204   20.2474  -36.1329 C   0  0  0  0  0  0  0  0  0  0  0  0
  -17.3413   19.1609  -35.4741 C   0  0  0  0  0  0  0  0  0  0  0  0
  -17.5158   19.0141  -34.0542 C   0  0  0  0  0  0  0  0  0  0  0  0
  -18.0189   17.7793  -33.4968 N   0  0  0  0  0  0  0  0  0  0  0  0
  -19.1784   17.1537  -33.5674 C   0  0  0  0  0  0  0  0  0  0  0  0
  -20.4150   17.5722  -34.1958 C   0  0  0  0  0  0  0  0  0  0  0  0
  -21.4588   18.3499  -33.4919 C   0  0  0  0  0  0  0  0  0  0  0  0
  -22.0762   19.4679  -34.3881 C   0  0  0  0  0  0  0  0  0  0  0  0
  -22.5954   17.4939  -33.0282 C   0  0  0  0  0  0  0  0  0  0  0  0
  -20.9179   19.2371  -32.3868 C   0  0  0  0  0  0  0  0  0  0  0  0
  -21.1066   18.9441  -31.2076 O   0  0  0  0  0  0  0  0  0  0  0  0
  -20.2232   20.3589  -32.7469 O   0  0  0  0  0  0  0  0  0  0  0  0
  -19.1277   15.8977  -32.8859 C   0  0  0  0  0  0  0  0  0  0  0  0
  -20.2775   14.5990  -32.8290 S   0  0  0  0  0  0  0  0  0  0  0  0
  -21.1918   14.1360  -31.4374 C   0  0  0  0  0  0  0  0  0  0  0  0
  -21.1547   15.4062  -30.4789 C   0  0  0  0  0  0  0  0  0  0  0  0
  -22.6518   13.8623  -31.6029 C   0  0  0  0  0  0  0  0  0  0  0  0
  -20.5954   13.0589  -30.5406 C   0  0  0  0  0  0  0  0  0  0  0  0
  -17.8109   15.8530  -32.3938 C   0  0  0  0  0  0  0  0  0  0  0  0
  -17.1990   14.8547  -31.6575 C   0  0  0  0  0  0  0  0  0  0  0  0
  -15.8784   14.9768  -31.2719 C   0  0  0  0  0  0  0  0  0  0  0  0
  -15.2688   13.9803  -30.5395 O   0  0  0  0  0  0  0  0  0  0  0  0
  -15.7429   13.4303  -29.3375 C   0  0  0  0  0  0  0  0  0  0  0  0
  -14.6835   13.6437  -28.2583 C   0  0  2  0  0  0  0  0  0  0  0  0
  -13.3629   13.1044  -28.7156 C   0  0  0  0  0  0  0  0  0  0  0  0
  -13.2964   11.7868  -28.0526 C   0  0  0  0  0  0  0  0  0  0  0  0
  -12.4230   10.7406  -28.2657 C   0  0  0  0  0  0  0  0  0  0  0  0
  -12.5279    9.5880  -27.5352 C   0  0  0  0  0  0  0  0  0  0  0  0
  -13.5199    9.4710  -26.5732 C   0  0  0  0  0  0  0  0  0  0  0  0
  -14.3830   10.5335  -26.3784 C   0  0  0  0  0  0  0  0  0  0  0  0
  -14.2983   11.7001  -27.0992 C   0  0  0  0  0  0  0  0  0  0  0  0
  -15.0557   12.9214  -27.0850 N   0  0  0  0  0  0  0  0  0  0  0  0
  -15.9774   13.3068  -26.0913 C   0  0  0  0  0  0  0  0  0  0  0  0
  -16.5392   14.6748  -26.0762 C   0  0  0  0  0  0  0  0  0  0  0  0
  -16.3223   12.4904  -25.2164 O   0  0  0  0  0  0  0  0  0  0  0  0
  -15.1878   16.1289  -31.6451 C   0  0  0  0  0  0  0  0  0  0  0  0
  -15.8336   17.1179  -32.3874 C   0  0  0  0  0  0  0  0  0  0  0  0
  -17.1578   16.9813  -32.7663 C   0  0  0  0  0  0  0  0  0  0  0  0
  -17.6723   18.0991  -36.3186 C   0  0  0  0  0  0  0  0  0  0  0  0
  -17.5121   18.1012  -37.6579 C   0  0  0  0  0  0  0  0  0  0  0  0
  -17.0575   20.3150  -40.4999 N   0  0  0  0  0  0  0  0  0  0  0  0
  -16.9086   20.3115  -41.8426 C   0  0  0  0  0  0  0  0  0  0  0  0
  1  2  1  0
  2  3  1  0
  3  4  2  0
  4  5  1  0
  5  6  2  0
  6  7  1  0
  7  8  2  0
  8  9  1  0
  9 10  2  0
 10 11  1  0
 11 12  1  0
 12 13  1  0
 13 14  1  0
 14 15  1  0
 15 16  1  0
 15 17  1  0
 15 18  1  0
 18 19  2  0
 18 20  1  0
 13 21  2  0
 21 22  1  0
 22 23  1  0
 23 24  1  0
 23 25  1  0
 23 26  1  0
 21 27  1  0
 27 28  2  0
 28 29  1  0
 29 30  1  0
 30 31  1  0
 32 31  1  6
 32 33  1  0
 33 34  1  0
 34 35  2  0
 35 36  1  0
 36 37  2  0
 37 38  1  0
 38 39  2  0
 39 40  1  0
 40 41  1  0
 41 42  1  0
 41 43  2  0
 29 44  2  0
 44 45  1  0
 45 46  2  0
 10 47  1  0
 47 48  2  0
  6 49  1  0
 49 50  2  0
 50  3  1  0
 48  7  1  0
 46 12  1  0
 46 27  1  0
 40 32  1  0
 39 34  1  0
M  END
$$$$
