
     RDKit          3D

 22 23  0  0  0  0  0  0  0  0999 V2000
  -21.9606   41.2738  -25.6672 C   0  0  0  0  0  0  0  0  0  0  0  0
  -20.6788   40.4942  -25.6584 C   0  0  0  0  0  0  0  0  0  0  0  0
  -20.1319   40.1447  -26.7168 O   0  0  0  0  0  0  0  0  0  0  0  0
  -20.0905   40.1569  -24.3634 C   0  0  0  0  0  0  0  0  0  0  0  0
  -18.8011   39.7098  -24.2504 C   0  0  0  0  0  0  0  0  0  0  0  0
  -18.2662   39.3962  -23.0081 C   0  0  0  0  0  0  0  0  0  0  0  0
  -19.0397   39.5351  -21.8689 C   0  0  0  0  0  0  0  0  0  0  0  0
  -18.4027   39.1527  -20.3056 S   0  0  0  0  0  6  0  0  0  0  0  0
  -17.2144   38.2641  -20.4758 O   0  0  0  0  0  0  0  0  0  0  0  0
  -19.4808   38.4816  -19.5080 O   0  0  0  0  0  0  0  0  0  0  0  0
  -17.8937   40.5813  -19.4628 N   0  0  0  0  0  0  0  0  0  0  0  0
  -17.2646   41.6495  -20.1442 C   0  0  0  0  0  0  0  0  0  0  0  0
  -17.2336   41.6231  -21.3941 O   0  0  0  0  0  0  0  0  0  0  0  0
  -16.6921   42.7097  -19.4076 N   0  0  0  0  0  0  0  0  0  0  0  0
  -15.9755   43.7410  -20.1000 C   0  0  0  0  0  0  0  0  0  0  0  0
  -14.9428   44.4224  -19.2424 C   0  0  0  0  0  0  0  0  0  0  0  0
  -15.3896   45.7727  -18.7485 C   0  0  0  0  0  0  0  0  0  0  0  0
  -15.8214   46.7010  -19.8326 C   0  0  0  0  0  0  0  0  0  0  0  0
  -16.1076   45.9493  -21.1118 C   0  0  0  0  0  0  0  0  0  0  0  0
  -16.9524   44.7351  -20.7033 C   0  0  0  0  0  0  0  0  0  0  0  0
  -20.3347   39.9824  -21.9658 C   0  0  0  0  0  0  0  0  0  0  0  0
  -20.8461   40.2884  -23.2117 C   0  0  0  0  0  0  0  0  0  0  0  0
  1  2  1  0
  2  3  2  0
  2  4  1  0
  4  5  2  0
  5  6  1  0
  6  7  2  0
  7  8  1  0
  8  9  2  0
  8 10  2  0
  8 11  1  0
 11 12  1  0
 12 13  2  0
 12 14  1  0
 14 15  1  0
 15 16  1  0
 16 17  1  0
 17 18  1  0
 18 19  1  0
 19 20  1  0
  7 21  1  0
 21 22  2  0
 22  4  1  0
 20 15  1  0
M  END
$$$$
