
     RDKit          3D

 28 30  0  0  0  0  0  0  0  0999 V2000
  -15.3537   17.6401  -33.8994 C   0  0  0  0  0  0  0  0  0  0  0  0
  -15.2406   18.2842  -35.2919 C   0  0  0  0  0  0  0  0  0  0  0  0
  -15.3504   17.1920  -36.3249 C   0  0  0  0  0  0  0  0  0  0  0  0
  -14.3630   16.2229  -36.1364 F   0  0  0  0  0  0  0  0  0  0  0  0
  -16.5361   16.5126  -36.0104 F   0  0  0  0  0  0  0  0  0  0  0  0
  -15.3622   17.6846  -37.7095 C   0  0  0  0  0  0  0  0  0  0  0  0
  -14.1859   17.4445  -38.4179 C   0  0  0  0  0  0  0  0  0  0  0  0
  -13.9990   17.6800  -39.7539 C   0  0  0  0  0  0  0  0  0  0  0  0
  -12.7903   17.4219  -40.4332 N   0  0  0  0  0  0  0  0  0  0  0  0
  -12.8395   17.0069  -41.8170 C   0  0  0  0  0  0  0  0  0  0  0  0
  -11.7735   17.5820  -42.6795 C   0  0  0  0  0  0  0  0  0  0  0  0
  -10.8510   18.4478  -41.8883 C   0  0  0  0  0  0  0  0  0  0  0  0
   -9.4925   19.0762  -42.8140 S   0  0  0  0  0  6  0  0  0  0  0  0
   -9.5541   18.5771  -44.5119 C   0  0  0  0  0  0  0  0  0  0  0  0
   -8.2263   18.5550  -42.1477 O   0  0  0  0  0  0  0  0  0  0  0  0
   -9.4493   20.5696  -42.6610 O   0  0  0  0  0  0  0  0  0  0  0  0
  -10.3721   17.6667  -40.6798 C   0  0  0  0  0  0  0  0  0  0  0  0
  -11.5425   17.5819  -39.7143 C   0  0  0  0  0  0  0  0  0  0  0  0
  -15.0876   18.1901  -40.3828 N   0  0  0  0  0  0  0  0  0  0  0  0
  -16.2181   18.4304  -39.7290 C   0  0  0  0  0  0  0  0  0  0  0  0
  -17.7685   19.1272  -40.2997 S   0  0  0  0  0  0  0  0  0  0  0  0
  -18.6056   19.0971  -38.7868 C   0  0  0  0  0  0  0  0  0  0  0  0
  -19.9748   19.5408  -38.5318 C   0  0  0  0  0  0  0  0  0  0  0  0
  -20.7342   20.0505  -39.6015 N   0  0  0  0  0  0  0  0  0  0  0  0
  -20.4478   19.4661  -37.3968 O   0  0  0  0  0  0  0  0  0  0  0  0
  -17.6764   18.5593  -37.9097 C   0  0  0  0  0  0  0  0  0  0  0  0
  -18.1288   18.5114  -36.5166 N   0  0  0  0  0  0  0  0  0  0  0  0
  -16.4710   18.2195  -38.3928 C   0  0  0  0  0  0  0  0  0  0  0  0
  1  2  1  0
  2  3  1  0
  3  4  1  0
  3  5  1  0
  3  6  1  0
  6  7  2  0
  7  8  1  0
  8  9  1  0
  9 10  1  0
 10 11  1  0
 11 12  1  0
 12 13  1  0
 13 14  1  0
 13 15  2  0
 13 16  2  0
 12 17  1  0
 17 18  1  0
  8 19  2  0
 19 20  1  0
 20 21  1  0
 21 22  1  0
 22 23  1  0
 23 24  1  0
 23 25  2  0
 22 26  2  0
 26 27  1  0
 26 28  1  0
 28  6  1  0
 18  9  1  0
 28 20  2  0
M  END
$$$$
