
     RDKit          3D

 31 34  0  0  0  0  0  0  0  0999 V2000
  -17.2662   16.4206  -36.8037 N   0  0  0  0  0  0  0  0  0  0  0  0
  -17.4832   17.1520  -37.9970 C   0  0  0  0  0  0  0  0  0  0  0  0
  -18.6701   17.4527  -38.2814 O   0  0  0  0  0  0  0  0  0  0  0  0
  -16.3593   17.5274  -38.8424 C   0  0  0  0  0  0  0  0  0  0  0  0
  -15.0658   17.1973  -38.7372 N   0  0  0  0  0  0  0  0  0  0  0  0
  -14.3637   17.7511  -39.7563 C   0  0  0  0  0  0  0  0  0  0  0  0
  -12.9114   17.6164  -39.9863 C   0  0  0  0  0  0  0  0  0  0  0  0
  -12.4731   17.3964  -41.2755 C   0  0  0  0  0  0  0  0  0  0  0  0
  -13.3301   17.2967  -42.3032 F   0  0  0  0  0  0  0  0  0  0  0  0
  -11.1102   17.2766  -41.5064 C   0  0  0  0  0  0  0  0  0  0  0  0
  -10.2309   17.3765  -40.4682 C   0  0  0  0  0  0  0  0  0  0  0  0
  -10.6826   17.5975  -39.1748 C   0  0  0  0  0  0  0  0  0  0  0  0
  -12.0421   17.7195  -38.9263 C   0  0  0  0  0  0  0  0  0  0  0  0
  -12.5730   17.9951  -37.2882 Cl  0  0  0  0  0  0  0  0  0  0  0  0
  -15.2443   18.4125  -40.4685 O   0  0  0  0  0  0  0  0  0  0  0  0
  -16.4419   18.3256  -39.9874 C   0  0  0  0  0  0  0  0  0  0  0  0
  -17.6592   18.8913  -40.4513 N   0  0  0  0  0  0  0  0  0  0  0  0
  -17.5927   19.6680  -41.6608 C   0  0  0  0  0  0  0  0  0  0  0  0
  -18.5865   19.5568  -42.6029 C   0  0  0  0  0  0  0  0  0  0  0  0
  -18.5196   20.2770  -43.7654 C   0  0  0  0  0  0  0  0  0  0  0  0
  -17.4624   21.1492  -44.0616 C   0  0  0  0  0  0  0  0  0  0  0  0
  -17.4297   21.9040  -45.2957 C   0  0  0  0  0  0  0  0  0  0  0  0
  -16.8767   21.3882  -46.3072 O   0  0  0  0  0  0  0  0  0  0  0  0
  -17.9826   23.1820  -45.4114 N   0  0  0  0  0  0  0  0  0  0  0  0
  -17.4741   24.1203  -46.3957 C   0  0  0  0  0  0  0  0  0  0  0  0
  -18.6165   24.6705  -47.2278 C   0  0  0  0  0  0  0  0  0  0  0  0
  -19.8479   24.3306  -46.6702 O   0  0  0  0  0  0  0  0  0  0  0  0
  -19.9256   24.6187  -45.3311 C   0  0  0  0  0  0  0  0  0  0  0  0
  -19.1171   23.5823  -44.5659 C   0  0  0  0  0  0  0  0  0  0  0  0
  -16.4793   21.2311  -43.0833 C   0  0  0  0  0  0  0  0  0  0  0  0
  -16.5404   20.5113  -41.9132 C   0  0  0  0  0  0  0  0  0  0  0  0
  1  2  1  0
  2  3  2  0
  2  4  1  0
  4  5  1  0
  5  6  2  0
  6  7  1  0
  7  8  2  0
  8  9  1  0
  8 10  1  0
 10 11  2  0
 11 12  1  0
 12 13  2  0
 13 14  1  0
  6 15  1  0
 15 16  1  0
 16 17  1  0
 17 18  1  0
 18 19  2  0
 19 20  1  0
 20 21  2  0
 21 22  1  0
 22 23  2  0
 22 24  1  0
 24 25  1  0
 25 26  1  0
 26 27  1  0
 27 28  1  0
 28 29  1  0
 21 30  1  0
 30 31  2  0
 16  4  2  0
 31 18  1  0
 13  7  1  0
 29 24  1  0
M  END
$$$$
