
     RDKit          3D

 33 35  0  0  0  0  0  0  0  0999 V2000
  -13.8355   46.9328  -19.4054 C   0  0  0  0  0  0  0  0  0  0  0  0
  -14.3535   45.5464  -19.1863 C   0  0  0  0  0  0  0  0  0  0  0  0
  -15.8638   45.4845  -19.4313 C   0  0  0  0  0  0  0  0  0  0  0  0
  -16.3169   44.0956  -19.2047 C   0  0  0  0  0  0  0  0  0  0  0  0
  -15.4929   43.2018  -18.9043 O   0  0  0  0  0  0  0  0  0  0  0  0
  -17.6892   43.7785  -19.3293 N   0  0  0  0  0  0  0  0  0  0  0  0
  -18.1245   42.4451  -19.1197 C   0  0  0  0  0  0  0  0  0  0  0  0
  -18.4639   42.0161  -17.8991 N   0  0  0  0  0  0  0  0  0  0  0  0
  -18.8762   40.7412  -17.6688 C   0  0  0  0  0  0  0  0  0  0  0  0
  -18.9359   39.9102  -18.7154 N   0  0  0  0  0  0  0  0  0  0  0  0
  -18.6171   40.2533  -19.9629 C   0  0  0  0  0  0  0  0  0  0  0  0
  -18.2011   41.5522  -20.1717 C   0  0  0  0  0  0  0  0  0  0  0  0
  -17.9438   41.6422  -21.4839 N   0  0  0  0  0  0  0  0  0  0  0  0
  -18.1854   40.4524  -22.0781 C   0  0  0  0  0  0  0  0  0  0  0  0
  -18.6089   39.5760  -21.1239 N   0  0  0  0  0  0  0  0  0  0  0  0
  -18.9661   38.1829  -21.3473 C   0  0  2  0  0  0  0  0  0  0  0  0
  -17.8342   37.3922  -21.4792 O   0  0  0  0  0  0  0  0  0  0  0  0
  -18.3343   36.2097  -21.9981 C   0  0  2  0  0  0  0  0  0  0  0  0
  -17.2490   35.3458  -22.5918 C   0  0  0  0  0  0  0  0  0  0  0  0
  -17.8003   34.2620  -23.2098 O   0  0  0  0  0  0  0  0  0  0  0  0
  -19.4638   34.1907  -23.2538 P   0  0  0  0  0  5  0  0  0  0  0  0
  -20.0077   33.3526  -22.1133 O   0  0  0  0  0  0  0  0  0  0  0  0
  -19.8973   33.3857  -24.7034 O   0  0  0  0  0  1  0  0  0  0  0  0
  -20.1952   35.7096  -23.3172 O   0  0  0  0  0  0  0  0  0  0  0  0
  -19.2293   36.6549  -23.1303 C   0  0  1  0  0  0  0  0  0  0  0  0
  -19.7428   37.9592  -22.5777 C   0  0  1  0  0  0  0  0  0  0  0  0
  -21.1393   37.9762  -22.4156 O   0  0  0  0  0  0  0  0  0  0  0  0
  -21.9913   38.7668  -23.1321 C   0  0  0  0  0  0  0  0  0  0  0  0
  -21.4329   39.5115  -24.0000 O   0  0  0  0  0  0  0  0  0  0  0  0
  -23.4389   38.7845  -22.9473 C   0  0  0  0  0  0  0  0  0  0  0  0
  -24.0987   37.5038  -23.3575 C   0  0  0  0  0  0  0  0  0  0  0  0
  -23.5627   36.3914  -22.4535 C   0  0  0  0  0  0  0  0  0  0  0  0
  -18.8583   39.8086  -21.2814 Na  0  0  0  0  0 15  0  0  0  0  0  0
  1  2  1  0
  2  3  1  0
  3  4  1  0
  4  5  2  0
  4  6  1  0
  6  7  1  0
  7  8  2  0
  8  9  1  0
  9 10  2  0
 10 11  1  0
 11 12  2  0
 12 13  1  0
 13 14  2  0
 14 15  1  0
 16 15  1  6
 16 17  1  0
 17 18  1  0
 18 19  1  6
 19 20  1  0
 20 21  1  0
 21 22  2  0
 21 23  1  0
 21 24  1  0
 25 24  1  1
 25 26  1  0
 26 27  1  1
 27 28  1  0
 28 29  2  0
 28 30  1  0
 30 31  1  0
 31 32  1  0
 12  7  1  0
 26 16  1  0
 15 11  1  0
 25 18  1  0
M  CHG  2  23  -1  33   1
M  END
$$$$
