
     RDKit          3D

 14 15  0  0  0  0  0  0  0  0999 V2000
  -20.1586   38.1221  -21.8568 N   0  0  0  0  0  0  0  0  0  0  0  0
  -18.8009   38.4928  -20.9487 S   0  0  0  0  0  6  0  0  0  0  0  0
  -17.9765   37.2692  -20.5689 O   0  0  0  0  0  0  0  0  0  0  0  0
  -19.2559   39.1945  -19.6757 O   0  0  0  0  0  0  0  0  0  0  0  0
  -17.7255   39.5979  -21.7784 C   0  0  0  0  0  0  0  0  0  0  0  0
  -18.3692   40.8435  -22.2489 C   0  0  0  0  0  0  0  0  0  0  0  0
  -19.3885   40.9804  -23.1282 N   0  0  0  0  0  0  0  0  0  0  0  0
  -19.6889   42.2302  -23.2774 O   0  0  0  0  0  0  0  0  0  0  0  0
  -18.9067   42.9707  -22.5261 C   0  0  0  0  0  0  0  0  0  0  0  0
  -18.8192   44.3233  -22.3274 C   0  0  0  0  0  0  0  0  0  0  0  0
  -17.8864   44.8397  -21.4658 C   0  0  0  0  0  0  0  0  0  0  0  0
  -17.0278   43.9908  -20.7926 C   0  0  0  0  0  0  0  0  0  0  0  0
  -17.1181   42.6415  -20.9935 C   0  0  0  0  0  0  0  0  0  0  0  0
  -18.0516   42.1276  -21.8548 C   0  0  0  0  0  0  0  0  0  0  0  0
  1  2  1  0
  2  3  2  0
  2  4  2  0
  2  5  1  0
  5  6  1  0
  6  7  2  0
  7  8  1  0
  8  9  1  0
  9 10  2  0
 10 11  1  0
 11 12  2  0
 12 13  1  0
 13 14  2  0
 14  6  1  0
 14  9  1  0
M  END
$$$$
