
     RDKit          3D

 27 29  0  0  0  0  0  0  0  0999 V2000
  -17.2357   41.3147  -21.9422 C   0  0  0  0  0  0  0  0  0  0  0  0
  -18.6032   41.0347  -21.8400 O   0  0  0  0  0  0  0  0  0  0  0  0
  -19.1528   39.7752  -21.9122 C   0  0  0  0  0  0  0  0  0  0  0  0
  -18.7196   38.9268  -21.0869 O   0  0  0  0  0  0  0  0  0  0  0  0
  -20.2013   39.4355  -22.9109 C   0  0  0  0  0  0  0  0  0  0  0  0
  -21.1357   40.3290  -23.1522 C   0  0  0  0  0  0  0  0  0  0  0  0
  -21.1500   41.6470  -22.4481 C   0  0  0  0  0  0  0  0  0  0  0  0
  -22.1726   40.0960  -24.0865 N   0  0  0  0  0  0  0  0  0  0  0  0
  -22.1807   38.8441  -24.7743 C   0  0  0  0  0  0  0  0  0  0  0  0
  -23.2569   38.5710  -25.7614 C   0  0  0  0  0  0  0  0  0  0  0  0
  -21.2675   37.9286  -24.5612 C   0  0  0  0  0  0  0  0  0  0  0  0
  -21.2835   36.6327  -25.2792 C   0  0  0  0  0  0  0  0  0  0  0  0
  -20.2627   35.8964  -25.3170 O   0  0  0  0  0  0  0  0  0  0  0  0
  -22.3903   36.1528  -25.9408 O   0  0  0  0  0  0  0  0  0  0  0  0
  -22.5681   36.2123  -27.3340 C   0  0  0  0  0  0  0  0  0  0  0  0
  -22.7517   37.5902  -27.8700 C   0  0  0  0  0  0  0  0  0  0  0  0
  -23.6882   35.2871  -27.7861 C   0  0  0  0  0  0  0  0  0  0  0  0
  -20.1718   38.1413  -23.5894 C   0  0  0  0  0  0  0  0  0  0  0  0
  -20.1527   37.0422  -22.5770 C   0  0  0  0  0  0  0  0  0  0  0  0
  -21.3055   36.4862  -22.0988 C   0  0  0  0  0  0  0  0  0  0  0  0
  -21.2411   35.4927  -21.1472 C   0  0  0  0  0  0  0  0  0  0  0  0
  -20.0333   35.0435  -20.6621 C   0  0  0  0  0  0  0  0  0  0  0  0
  -18.8811   35.6098  -21.1492 C   0  0  0  0  0  0  0  0  0  0  0  0
  -17.6019   35.3920  -20.8813 N   0  0  0  0  0  0  0  0  0  0  0  0
  -16.9127   36.1871  -21.6085 O   0  0  0  0  0  0  0  0  0  0  0  0
  -17.6510   36.9414  -22.3636 N   0  0  0  0  0  0  0  0  0  0  0  0
  -18.9447   36.5990  -22.0971 C   0  0  0  0  0  0  0  0  0  0  0  0
  1  2  1  0
  2  3  1  0
  3  4  2  0
  3  5  1  0
  5  6  2  0
  6  7  1  0
  6  8  1  0
  8  9  1  0
  9 10  1  0
  9 11  2  0
 11 12  1  0
 12 13  2  0
 12 14  1  0
 14 15  1  0
 15 16  1  0
 15 17  1  0
 11 18  1  0
 18 19  1  0
 19 20  2  0
 20 21  1  0
 21 22  2  0
 22 23  1  0
 23 24  2  0
 24 25  1  0
 25 26  1  0
 26 27  2  0
 18  5  1  0
 27 19  1  0
 27 23  1  0
M  END
$$$$
