
     RDKit          3D

 23 26  0  0  0  0  0  0  0  0999 V2000
  -23.9729   21.6010  -34.5598 C   0  0  0  0  0  0  0  0  0  0  0  0
  -24.9505   20.4853  -33.5559 S   0  0  0  0  0  0  0  0  0  0  0  0
  -23.8645   19.2884  -32.7839 C   0  0  0  0  0  0  0  0  0  0  0  0
  -23.8324   18.4886  -31.9667 N   0  0  0  0  0  0  0  0  0  0  0  0
  -22.8565   17.6980  -31.5691 C   0  0  0  0  0  0  0  0  0  0  0  0
  -22.8609   16.7333  -30.5646 C   0  0  0  0  0  0  0  0  0  0  0  0
  -21.7239   16.0147  -30.3117 C   0  0  0  0  0  0  0  0  0  0  0  0
  -20.5257   16.1673  -30.9908 C   0  0  0  0  0  0  0  0  0  0  0  0
  -19.3630   15.4042  -30.7026 N   0  0  0  0  0  0  0  0  0  0  0  0
  -18.0491   15.9105  -30.8894 C   0  0  0  0  0  0  0  0  0  0  0  0
  -17.8927   17.0311  -31.4171 O   0  0  0  0  0  0  0  0  0  0  0  0
  -16.8632   15.1377  -30.4717 C   0  0  0  0  0  0  0  0  0  0  0  0
  -15.5628   15.4166  -30.8340 C   0  0  0  0  0  0  0  0  0  0  0  0
  -14.7855   14.4581  -30.2311 C   0  0  0  0  0  0  0  0  0  0  0  0
  -13.4268   14.2266  -30.2288 C   0  0  0  0  0  0  0  0  0  0  0  0
  -12.8962   13.1506  -29.5101 C   0  0  0  0  0  0  0  0  0  0  0  0
  -13.7523   12.3352  -28.8115 C   0  0  0  0  0  0  0  0  0  0  0  0
  -15.0914   12.5545  -28.8074 C   0  0  0  0  0  0  0  0  0  0  0  0
  -15.6241   13.6240  -29.5211 C   0  0  0  0  0  0  0  0  0  0  0  0
  -16.8367   14.0815  -29.7058 O   0  0  0  0  0  0  0  0  0  0  0  0
  -20.5193   17.1291  -31.9931 C   0  0  0  0  0  0  0  0  0  0  0  0
  -21.6907   17.8657  -32.2498 C   0  0  0  0  0  0  0  0  0  0  0  0
  -22.0512   19.1387  -33.4160 S   0  0  0  0  0  0  0  0  0  0  0  0
  1  2  1  0
  2  3  1  0
  3  4  2  0
  4  5  1  0
  5  6  2  0
  6  7  1  0
  7  8  2  0
  8  9  1  0
  9 10  1  0
 10 11  2  0
 10 12  1  0
 12 13  2  0
 13 14  1  0
 14 15  2  0
 15 16  1  0
 16 17  2  0
 17 18  1  0
 18 19  2  0
 19 20  1  0
  8 21  1  0
 21 22  2  0
 22 23  1  0
 23  3  1  0
 22  5  1  0
 20 12  1  0
 19 14  1  0
M  END
$$$$
