
     RDKit          3D

 47 52  0  0  0  0  0  0  0  0999 V2000
  -30.5185   25.2259  -31.9047 C   0  0  0  0  0  0  0  0  0  0  0  0
  -31.1173   25.2128  -33.2462 N   0  0  0  0  0  0  0  0  0  0  0  0
  -32.5821   25.5308  -33.0306 C   0  0  0  0  0  0  0  0  0  0  0  0
  -30.6335   26.4012  -33.9824 C   0  0  0  0  0  0  0  0  0  0  0  0
  -29.4520   25.9371  -34.8111 C   0  0  0  0  0  0  0  0  0  0  0  0
  -28.4847   25.5345  -35.5034 C   0  0  0  0  0  0  0  0  0  0  0  0
  -27.4336   25.0922  -36.2562 C   0  0  0  0  0  0  0  0  0  0  0  0
  -27.4801   24.2186  -37.2926 C   0  0  0  0  0  0  0  0  0  0  0  0
  -26.4284   23.8509  -38.0935 C   0  0  0  0  0  0  0  0  0  0  0  0
  -25.1653   24.4233  -37.8401 C   0  0  0  0  0  0  0  0  0  0  0  0
  -24.1264   24.0711  -38.6282 O   0  0  0  0  0  0  0  0  0  0  0  0
  -23.9825   22.9763  -39.4793 C   0  0  0  0  0  0  0  0  0  0  0  0
  -22.6295   22.9279  -40.0989 C   0  0  0  0  0  0  0  0  0  0  0  0
  -22.1840   24.2028  -40.8322 C   0  0  0  0  0  0  0  0  0  0  0  0
  -20.7769   23.9055  -41.2720 C   0  0  0  0  0  0  0  0  0  0  0  0
  -19.5999   22.8776  -40.5162 S   0  0  0  0  0  0  0  0  0  0  0  0
  -18.3649   23.0719  -41.9369 C   0  0  0  0  0  0  0  0  0  0  0  0
  -17.0882   22.3715  -41.8741 N   0  0  0  0  0  0  0  0  0  0  0  0
  -16.1283   22.7087  -42.9418 C   0  0  0  0  0  0  0  0  0  0  0  0
  -16.0559   21.4843  -43.8681 C   0  0  0  0  0  0  0  0  0  0  0  0
  -15.8767   20.2960  -42.9742 C   0  0  0  0  0  0  0  0  0  0  0  0
  -15.3929   19.1566  -43.6661 C   0  0  0  0  0  0  0  0  0  0  0  0
  -15.1248   18.0183  -42.9760 C   0  0  0  0  0  0  0  0  0  0  0  0
  -15.3370   17.9922  -41.6128 C   0  0  0  0  0  0  0  0  0  0  0  0
  -15.8292   19.1396  -40.9515 C   0  0  0  0  0  0  0  0  0  0  0  0
  -15.8317   18.9494  -39.4848 C   0  0  0  0  0  0  0  0  0  0  0  0
  -16.7838   19.2734  -38.7992 O   0  0  0  0  0  0  0  0  0  0  0  0
  -14.6763   18.3565  -38.9078 N   0  0  0  0  0  0  0  0  0  0  0  0
  -14.6233   17.7591  -37.6151 C   0  0  0  0  0  0  0  0  0  0  0  0
  -13.7032   17.1153  -37.0203 N   0  0  0  0  0  0  0  0  0  0  0  0
  -13.8339   16.5709  -35.8622 C   0  0  0  0  0  0  0  0  0  0  0  0
  -12.8996   15.7979  -35.1461 C   0  0  0  0  0  0  0  0  0  0  0  0
  -13.1721   15.2446  -33.9786 C   0  0  0  0  0  0  0  0  0  0  0  0
  -14.3656   15.3548  -33.3255 C   0  0  0  0  0  0  0  0  0  0  0  0
  -15.3599   16.1289  -33.9843 C   0  0  0  0  0  0  0  0  0  0  0  0
  -15.0394   16.6880  -35.2227 C   0  0  0  0  0  0  0  0  0  0  0  0
  -15.9458   17.6378  -36.4318 S   0  0  0  0  0  0  0  0  0  0  0  0
  -16.0953   20.2647  -41.6282 C   0  0  0  0  0  0  0  0  0  0  0  0
  -16.7053   21.4274  -40.9031 C   0  0  0  0  0  0  0  0  0  0  0  0
  -18.9951   23.7751  -42.5897 N   0  0  0  0  0  0  0  0  0  0  0  0
  -20.1669   24.2946  -42.4646 C   0  0  0  0  0  0  0  0  0  0  0  0
  -20.8216   25.2484  -43.3998 C   0  0  0  0  0  0  0  0  0  0  0  0
  -20.3585   25.6285  -44.4728 O   0  0  0  0  0  0  0  0  0  0  0  0
  -22.0855   25.7660  -43.0073 O   0  0  0  0  0  0  0  0  0  0  0  0
  -25.1063   25.2953  -36.8011 C   0  0  0  0  0  0  0  0  0  0  0  0
  -23.8483   25.8726  -36.5968 F   0  0  0  0  0  0  0  0  0  0  0  0
  -26.1511   25.6731  -35.9829 C   0  0  0  0  0  0  0  0  0  0  0  0
  1  2  1  0
  2  3  1  0
  2  4  1  0
  4  5  1  0
  5  6  3  0
  6  7  1  0
  7  8  2  0
  8  9  1  0
  9 10  2  0
 10 11  1  0
 11 12  1  0
 12 13  1  0
 13 14  1  0
 14 15  1  0
 15 16  1  0
 16 17  1  0
 17 18  1  0
 18 19  1  0
 19 20  1  0
 20 21  1  0
 21 22  2  0
 22 23  1  0
 23 24  2  0
 24 25  1  0
 25 26  1  0
 26 27  2  0
 26 28  1  0
 28 29  1  0
 29 30  2  0
 30 31  1  0
 31 32  2  0
 32 33  1  0
 33 34  2  0
 34 35  1  0
 35 36  2  0
 36 37  1  0
 25 38  2  0
 38 39  1  0
 17 40  2  0
 40 41  1  0
 41 42  1  0
 42 43  2  0
 42 44  1  0
 10 45  1  0
 45 46  1  0
 45 47  2  0
 47  7  1  0
 41 15  2  0
 39 18  1  0
 38 21  1  0
 37 29  1  0
 36 31  1  0
M  END
$$$$
