
     RDKit          3D

 24 26  0  0  0  0  0  0  0  0999 V2000
  -28.9425   23.5752  -27.5766 C   0  0  0  0  0  0  0  0  0  0  0  0
  -28.0947   22.4902  -27.7891 O   0  0  0  0  0  0  0  0  0  0  0  0
  -27.4888   21.7348  -26.8167 C   0  0  0  0  0  0  0  0  0  0  0  0
  -26.1542   21.4529  -26.9040 C   0  0  0  0  0  0  0  0  0  0  0  0
  -25.5682   20.6879  -25.9082 C   0  0  0  0  0  0  0  0  0  0  0  0
  -26.3067   20.2121  -24.8407 C   0  0  0  0  0  0  0  0  0  0  0  0
  -25.7022   19.4211  -23.8104 N   0  0  0  0  0  0  0  0  0  0  0  0
  -24.3041   19.5323  -23.6514 C   0  0  0  0  0  0  0  0  0  0  0  0
  -23.5445   19.9094  -24.5905 O   0  0  0  0  0  0  0  0  0  0  0  0
  -23.6536   19.2081  -22.3598 C   0  0  0  0  0  0  0  0  0  0  0  0
  -22.6162   18.2260  -22.4994 N   0  0  0  0  0  0  0  0  0  0  0  0
  -21.3254   18.3718  -22.7331 N   0  0  0  0  0  0  0  0  0  0  0  0
  -20.7374   17.1942  -22.7849 N   0  0  0  0  0  0  0  0  0  0  0  0
  -21.6743   16.2435  -22.5781 C   0  0  0  0  0  0  0  0  0  0  0  0
  -21.4495   14.8063  -22.5546 C   0  0  0  0  0  0  0  0  0  0  0  0
  -20.1673   14.3200  -22.4222 C   0  0  0  0  0  0  0  0  0  0  0  0
  -19.9035   12.9578  -22.3946 C   0  0  0  0  0  0  0  0  0  0  0  0
  -20.9635   12.0682  -22.5038 C   0  0  0  0  0  0  0  0  0  0  0  0
  -22.2525   12.5647  -22.6369 C   0  0  0  0  0  0  0  0  0  0  0  0
  -22.4961   13.9210  -22.6624 C   0  0  0  0  0  0  0  0  0  0  0  0
  -23.7801   14.3249  -22.7949 F   0  0  0  0  0  0  0  0  0  0  0  0
  -22.8218   16.9230  -22.4059 N   0  0  0  0  0  0  0  0  0  0  0  0
  -27.6427   20.5232  -24.7999 C   0  0  0  0  0  0  0  0  0  0  0  0
  -28.2657   21.2766  -25.7621 C   0  0  0  0  0  0  0  0  0  0  0  0
  1  2  1  0
  2  3  1  0
  3  4  2  0
  4  5  1  0
  5  6  2  0
  6  7  1  0
  7  8  1  0
  8  9  2  0
  8 10  1  0
 10 11  1  0
 11 12  1  0
 12 13  2  0
 13 14  1  0
 14 15  1  0
 15 16  2  0
 16 17  1  0
 17 18  2  0
 18 19  1  0
 19 20  2  0
 20 21  1  0
 14 22  2  0
  6 23  1  0
 23 24  2  0
 24  3  1  0
 22 11  1  0
 20 15  1  0
M  END
$$$$
