
     RDKit          3D

 27 29  0  0  0  0  0  0  0  0999 V2000
  -18.6956   25.5833  -41.7175 C   0  0  0  0  0  0  0  0  0  0  0  0
  -17.9362   25.3301  -42.8628 O   0  0  0  0  0  0  0  0  0  0  0  0
  -17.0948   24.2307  -42.9300 C   0  0  0  0  0  0  0  0  0  0  0  0
  -16.1117   24.2150  -43.8822 C   0  0  0  0  0  0  0  0  0  0  0  0
  -15.2721   23.1281  -43.9564 C   0  0  0  0  0  0  0  0  0  0  0  0
  -15.4301   22.0839  -43.0825 C   0  0  0  0  0  0  0  0  0  0  0  0
  -16.4102   22.0635  -42.1085 C   0  0  0  0  0  0  0  0  0  0  0  0
  -16.5376   20.9311  -41.2039 C   0  0  0  0  0  0  0  0  0  0  0  0
  -15.5230   20.5193  -40.5896 O   0  0  0  0  0  0  0  0  0  0  0  0
  -17.7609   20.2531  -40.9707 N   0  0  0  0  0  0  0  0  0  0  0  0
  -17.9302   19.2454  -39.9810 C   0  0  0  0  0  0  0  0  0  0  0  0
  -18.7732   18.5056  -39.5693 N   0  0  0  0  0  0  0  0  0  0  0  0
  -18.6505   17.6373  -38.5988 C   0  0  0  0  0  0  0  0  0  0  0  0
  -17.4611   17.5504  -37.9858 C   0  0  0  0  0  0  0  0  0  0  0  0
  -16.9361   16.7241  -36.8834 C   0  0  0  0  0  0  0  0  0  0  0  0
  -17.7589   16.8206  -35.6492 C   0  0  0  0  0  0  0  0  0  0  0  0
  -18.0088   18.0289  -35.0600 C   0  0  0  0  0  0  0  0  0  0  0  0
  -18.7733   18.0843  -33.9196 C   0  0  0  0  0  0  0  0  0  0  0  0
  -19.3055   16.9388  -33.3410 C   0  0  0  0  0  0  0  0  0  0  0  0
  -19.0345   15.7318  -33.9613 C   0  0  0  0  0  0  0  0  0  0  0  0
  -19.5858   14.4516  -33.3790 C   0  0  0  0  0  0  0  0  0  0  0  0
  -20.5671   14.7320  -32.4587 F   0  0  0  0  0  0  0  0  0  0  0  0
  -20.0585   13.6631  -34.4251 F   0  0  0  0  0  0  0  0  0  0  0  0
  -18.5415   13.8510  -32.7122 F   0  0  0  0  0  0  0  0  0  0  0  0
  -18.2701   15.6780  -35.1012 C   0  0  0  0  0  0  0  0  0  0  0  0
  -16.4955   18.8080  -38.8904 S   0  0  0  0  0  0  0  0  0  0  0  0
  -17.2389   23.1642  -42.0545 C   0  0  0  0  0  0  0  0  0  0  0  0
  1  2  1  0
  2  3  1  0
  3  4  2  0
  4  5  1  0
  5  6  2  0
  6  7  1  0
  7  8  1  0
  8  9  2  0
  8 10  1  0
 10 11  1  0
 11 12  2  0
 12 13  1  0
 13 14  2  0
 14 15  1  0
 15 16  1  0
 16 17  2  0
 17 18  1  0
 18 19  2  0
 19 20  1  0
 20 21  1  0
 21 22  1  0
 21 23  1  0
 21 24  1  0
 20 25  2  0
 14 26  1  0
  7 27  2  0
 27  3  1  0
 26 11  1  0
 25 16  1  0
M  END
$$$$
