
     RDKit          3D

 33 34  0  0  0  0  0  0  0  0999 V2000
  -18.7515   19.9270  -42.0319 C   0  0  0  0  0  0  0  0  0  0  0  0
  -19.1625   21.0931  -41.3663 O   0  0  0  0  0  0  0  0  0  0  0  0
  -18.6088   22.3311  -41.6295 C   0  0  0  0  0  0  0  0  0  0  0  0
  -17.6013   22.3964  -42.6014 C   0  0  0  0  0  0  0  0  0  0  0  0
  -16.9894   23.5845  -42.9325 C   0  0  0  0  0  0  0  0  0  0  0  0
  -15.9744   23.6971  -43.9009 N   0  0  0  0  0  0  0  0  0  0  0  0
  -17.3961   24.7190  -42.2784 C   0  0  0  0  0  0  0  0  0  0  0  0
  -16.6357   26.2688  -42.6732 Cl  0  0  0  0  0  0  0  0  0  0  0  0
  -18.3754   24.6470  -41.3359 C   0  0  0  0  0  0  0  0  0  0  0  0
  -19.0239   23.4540  -40.9698 C   0  0  0  0  0  0  0  0  0  0  0  0
  -20.0536   23.4949  -39.9502 C   0  0  0  0  0  0  0  0  0  0  0  0
  -20.3419   24.6141  -39.4177 O   0  0  0  0  0  0  0  0  0  0  0  0
  -20.7767   22.4051  -39.4838 N   0  0  0  0  0  0  0  0  0  0  0  0
  -21.8047   22.4887  -38.4564 C   0  0  0  0  0  0  0  0  0  0  0  0
  -23.1226   22.1307  -39.1184 C   0  0  0  0  0  0  0  0  0  0  0  0
  -24.2712   22.4373  -38.1669 C   0  0  0  0  0  0  0  0  0  0  0  0
  -23.8656   22.4277  -36.8088 N   0  0  0  0  0  0  0  0  0  0  0  0
  -23.9737   23.6446  -36.0880 C   0  0  0  0  0  0  0  0  0  0  0  0
  -25.4373   24.0580  -35.8557 C   0  0  0  0  0  0  0  0  0  0  0  0
  -26.1296   22.9912  -35.0730 C   0  0  0  0  0  0  0  0  0  0  0  0
  -27.4604   23.2836  -34.8361 O   0  0  0  0  0  0  0  0  0  0  0  0
  -28.4877   23.4205  -35.7305 C   0  0  0  0  0  0  0  0  0  0  0  0
  -29.7517   23.7600  -35.2051 C   0  0  0  0  0  0  0  0  0  0  0  0
  -30.8559   23.9219  -35.9987 C   0  0  0  0  0  0  0  0  0  0  0  0
  -30.7267   23.7468  -37.3585 C   0  0  0  0  0  0  0  0  0  0  0  0
  -31.8029   23.9030  -38.1485 F   0  0  0  0  0  0  0  0  0  0  0  0
  -29.5162   23.4172  -37.8984 C   0  0  0  0  0  0  0  0  0  0  0  0
  -28.3964   23.2528  -37.0911 C   0  0  0  0  0  0  0  0  0  0  0  0
  -22.8185   21.5411  -36.4459 C   0  0  0  0  0  0  0  0  0  0  0  0
  -21.5809   21.6164  -37.2984 C   0  0  0  0  0  0  0  0  0  0  0  0
  -20.4893   21.9306  -36.5118 O   0  0  0  0  0  0  0  0  0  0  0  0
  -19.5465   20.9218  -36.4425 C   0  0  0  0  0  0  0  0  0  0  0  0
  -22.8295   22.7352  -38.7889 O   0  0  0  0  0  0  0  0  0  0  0  0
  1  2  1  0
  2  3  1  0
  3  4  2  0
  4  5  1  0
  5  6  1  0
  5  7  2  0
  7  8  1  0
  7  9  1  0
  9 10  2  0
 10 11  1  0
 11 12  2  0
 11 13  1  0
 13 14  1  0
 14 15  1  0
 15 16  1  0
 16 17  1  0
 17 18  1  0
 18 19  1  0
 19 20  1  0
 20 21  1  0
 21 22  1  0
 22 23  2  0
 23 24  1  0
 24 25  2  0
 25 26  1  0
 25 27  1  0
 27 28  2  0
 17 29  1  0
 29 30  1  0
 30 31  1  0
 31 32  1  0
 10  3  1  0
 30 14  1  0
 28 22  1  0
M  END
$$$$
