
     RDKit          3D

 18 18  0  0  0  0  0  0  0  0999 V2000
  -13.8593   18.1570  -43.1070 C   0  0  0  0  0  0  0  0  0  0  0  0
  -15.0957   17.6417  -42.4408 C   0  0  0  0  0  0  0  0  0  0  0  0
  -15.3162   18.3099  -41.0806 C   0  0  0  0  0  0  0  0  0  0  0  0
  -14.7000   17.4621  -40.0137 C   0  0  0  0  0  0  0  0  0  0  0  0
  -14.6093   18.1764  -38.6992 C   0  0  0  0  0  0  0  0  0  0  0  0
  -15.4972   17.4788  -37.6835 C   0  0  0  0  0  0  0  0  0  0  0  0
  -15.3775   18.1562  -36.3444 C   0  0  0  0  0  0  0  0  0  0  0  0
  -16.2881   17.5942  -35.3228 C   0  0  0  0  0  0  0  0  0  0  0  0
  -16.2674   18.2407  -33.9842 C   0  0  0  0  0  0  0  0  0  0  0  0
  -16.6613   17.3903  -32.8520 C   0  0  0  0  0  0  0  0  0  0  0  0
  -15.6972   16.7520  -32.1168 C   0  0  0  0  0  0  0  0  0  0  0  0
  -16.0372   15.9431  -31.0312 C   0  0  0  0  0  0  0  0  0  0  0  0
  -17.3376   15.7704  -30.6787 C   0  0  0  0  0  0  0  0  0  0  0  0
  -17.7582   14.8724  -29.4694 B   0  0  0  0  0  0  0  0  0  0  0  0
  -16.8395   13.7779  -29.0884 O   0  0  0  0  0  0  0  0  0  0  0  0
  -19.1487   14.7198  -29.0692 O   0  0  0  0  0  0  0  0  0  0  0  0
  -18.2957   16.4171  -31.4259 C   0  0  0  0  0  0  0  0  0  0  0  0
  -18.0006   17.2185  -32.4971 C   0  0  0  0  0  0  0  0  0  0  0  0
  1  2  1  0
  2  3  1  0
  3  4  1  0
  4  5  1  0
  5  6  1  0
  6  7  1  0
  7  8  1  0
  8  9  1  0
  9 10  1  0
 10 11  2  0
 11 12  1  0
 12 13  2  0
 13 14  1  0
 14 15  1  0
 14 16  1  0
 13 17  1  0
 17 18  2  0
 18 10  1  0
M  END
$$$$
