
     RDKit          3D

 18 20  0  0  0  0  0  0  0  0999 V2000
  -30.7826   23.3193  -38.4372 C   0  0  0  0  0  0  0  0  0  0  0  0
  -29.9844   24.1995  -37.5551 C   0  0  0  0  0  0  0  0  0  0  0  0
  -30.5247   25.2994  -36.9249 C   0  0  0  0  0  0  0  0  0  0  0  0
  -29.7291   26.0721  -36.1143 C   0  0  0  0  0  0  0  0  0  0  0  0
  -28.3841   25.7822  -35.9051 C   0  0  0  0  0  0  0  0  0  0  0  0
  -27.4164   26.3724  -35.1723 N   0  0  0  0  0  0  0  0  0  0  0  0
  -26.2828   25.6598  -35.3330 C   0  0  0  0  0  0  0  0  0  0  0  0
  -24.6714   25.9617  -34.6050 S   0  0  0  0  0  0  0  0  0  0  0  0
  -24.7122   27.6172  -33.8079 C   0  0  0  0  0  0  0  0  0  0  0  0
  -24.7286   28.7059  -34.7960 C   0  0  0  0  0  0  0  0  0  0  0  0
  -24.2801   28.4713  -36.0738 C   0  0  0  0  0  0  0  0  0  0  0  0
  -24.2927   29.4633  -37.0329 C   0  0  0  0  0  0  0  0  0  0  0  0
  -24.7699   30.7244  -36.6977 C   0  0  0  0  0  0  0  0  0  0  0  0
  -25.2070   30.9158  -35.4203 C   0  0  0  0  0  0  0  0  0  0  0  0
  -25.1882   29.9242  -34.4793 N   0  0  0  0  0  0  0  0  0  0  0  0
  -26.5524   24.6296  -36.1665 N   0  0  0  0  0  0  0  0  0  0  0  0
  -27.8544   24.6815  -36.5389 C   0  0  0  0  0  0  0  0  0  0  0  0
  -28.6593   23.9067  -37.3533 C   0  0  0  0  0  0  0  0  0  0  0  0
  1  2  1  0
  2  3  2  0
  3  4  1  0
  4  5  2  0
  5  6  1  0
  6  7  1  0
  7  8  1  0
  8  9  1  0
  9 10  1  0
 10 11  2  0
 11 12  1  0
 12 13  2  0
 13 14  1  0
 14 15  2  0
  7 16  2  0
 16 17  1  0
 17 18  2  0
 18  2  1  0
 17  5  1  0
 15 10  1  0
M  END
$$$$
