
     RDKit          3D

 42 47  0  0  0  0  0  0  0  0999 V2000
  -21.9226   37.9995  -20.4053 C   0  0  0  0  0  0  0  0  0  0  0  0
  -21.6163   37.8040  -21.8832 C   0  0  0  0  0  0  0  0  0  0  0  0
  -20.3225   37.1498  -21.9767 N   0  0  0  0  0  0  0  0  0  0  0  0
  -20.0065   35.8494  -21.9688 C   0  0  0  0  0  0  0  0  0  0  0  0
  -20.9785   34.7548  -21.8567 C   0  0  0  0  0  0  0  0  0  0  0  0
  -22.2466   34.8205  -21.4268 N   0  0  0  0  0  0  0  0  0  0  0  0
  -22.7565   33.6061  -21.4902 O   0  0  0  0  0  0  0  0  0  0  0  0
  -21.8664   32.7763  -21.9412 N   0  0  0  0  0  0  0  0  0  0  0  0
  -20.7239   33.4521  -22.1886 C   0  0  0  0  0  0  0  0  0  0  0  0
  -19.5018   32.9430  -22.6875 N   0  0  0  0  0  0  0  0  0  0  0  0
  -18.6713   35.7534  -22.0803 N   0  0  0  0  0  0  0  0  0  0  0  0
  -18.1332   36.9927  -22.1596 C   0  0  0  0  0  0  0  0  0  0  0  0
  -16.8607   37.4907  -22.2819 C   0  0  0  0  0  0  0  0  0  0  0  0
  -16.6623   38.8129  -22.3346 N   0  0  0  0  0  0  0  0  0  0  0  0
  -17.6153   39.7506  -22.2784 C   0  0  0  0  0  0  0  0  0  0  0  0
  -17.4657   41.1000  -22.3278 O   0  0  0  0  0  0  0  0  0  0  0  0
  -17.3056   41.9785  -21.2908 C   0  0  0  0  0  0  0  0  0  0  0  0
  -17.0264   41.6236  -20.0090 C   0  0  0  0  0  0  0  0  0  0  0  0
  -16.8768   42.5614  -19.0080 C   0  0  0  0  0  0  0  0  0  0  0  0
  -17.0162   43.8829  -19.3291 C   0  0  0  0  0  0  0  0  0  0  0  0
  -17.3048   44.2992  -20.6403 C   0  0  0  0  0  0  0  0  0  0  0  0
  -17.4206   45.6997  -20.8281 N   0  0  0  0  0  0  0  0  0  0  0  0
  -18.4819   46.3645  -21.4760 C   0  0  0  0  0  0  0  0  0  0  0  0
  -19.5255   45.7121  -21.7690 O   0  0  0  0  0  0  0  0  0  0  0  0
  -18.4312   47.8076  -21.8335 C   0  0  0  0  0  0  0  0  0  0  0  0
  -17.2551   48.4789  -22.0100 C   0  0  0  0  0  0  0  0  0  0  0  0
  -17.2339   49.8397  -22.3468 C   0  0  0  0  0  0  0  0  0  0  0  0
  -18.3829   50.5705  -22.5162 C   0  0  0  0  0  0  0  0  0  0  0  0
  -18.4669   51.8888  -22.8366 O   0  0  0  0  0  0  0  0  0  0  0  0
  -17.8364   52.9410  -22.2151 C   0  0  0  0  0  0  0  0  0  0  0  0
  -17.1649   53.9480  -23.0807 C   0  0  0  0  0  0  0  0  0  0  0  0
  -16.1423   54.7022  -22.3667 N   0  0  0  0  0  0  0  0  0  0  0  0
  -16.7248   55.3521  -21.2246 C   0  0  0  0  0  0  0  0  0  0  0  0
  -15.7111   56.2230  -20.5350 C   0  0  0  0  0  0  0  0  0  0  0  0
  -14.4769   55.6003  -20.4480 O   0  0  0  0  0  0  0  0  0  0  0  0
  -14.5700   54.2313  -20.6267 C   0  0  0  0  0  0  0  0  0  0  0  0
  -14.9964   53.9109  -22.0531 C   0  0  0  0  0  0  0  0  0  0  0  0
  -19.5790   49.8411  -22.3257 C   0  0  0  0  0  0  0  0  0  0  0  0
  -19.5957   48.5153  -21.9981 C   0  0  0  0  0  0  0  0  0  0  0  0
  -17.4419   43.3454  -21.5839 C   0  0  0  0  0  0  0  0  0  0  0  0
  -18.9199   39.2260  -22.1526 C   0  0  0  0  0  0  0  0  0  0  0  0
  -19.1725   37.8759  -22.0945 C   0  0  0  0  0  0  0  0  0  0  0  0
  1  2  1  0
  2  3  1  0
  3  4  1  0
  4  5  1  0
  5  6  2  0
  6  7  1  0
  7  8  1  0
  8  9  2  0
  9 10  1  0
  4 11  2  0
 11 12  1  0
 12 13  2  0
 13 14  1  0
 14 15  2  0
 15 16  1  0
 16 17  1  0
 17 18  2  0
 18 19  1  0
 19 20  2  0
 20 21  1  0
 21 22  1  0
 22 23  1  0
 23 24  2  0
 23 25  1  0
 25 26  2  0
 26 27  1  0
 27 28  2  0
 28 29  1  0
 29 30  1  0
 30 31  1  0
 31 32  1  0
 32 33  1  0
 33 34  1  0
 34 35  1  0
 35 36  1  0
 36 37  1  0
 28 38  1  0
 38 39  2  0
 21 40  2  0
 15 41  1  0
 41 42  2  0
 42  3  1  0
  9  5  1  0
 42 12  1  0
 40 17  1  0
 39 25  1  0
 37 32  1  0
M  END
$$$$
