
     RDKit          3D

 21 24  0  0  0  0  0  0  0  0999 V2000
  -17.4151   44.5752  -23.3051 O   0  0  0  0  0  0  0  0  0  0  0  0
  -17.2641   44.6517  -21.9039 C   0  0  0  0  0  0  0  0  0  0  0  0
  -17.2185   43.2701  -21.3882 C   0  0  0  0  0  0  0  0  0  0  0  0
  -18.0297   43.1446  -20.1053 C   0  0  0  0  0  0  0  0  0  0  0  0
  -18.8848   41.9238  -20.2101 C   0  0  0  0  0  0  0  0  0  0  0  0
  -19.8671   41.5664  -21.1371 C   0  0  0  0  0  0  0  0  0  0  0  0
  -20.5204   40.3560  -21.0490 C   0  0  0  0  0  0  0  0  0  0  0  0
  -20.1615   39.5143  -20.0061 C   0  0  0  0  0  0  0  0  0  0  0  0
  -19.1914   39.8692  -19.0913 C   0  0  0  0  0  0  0  0  0  0  0  0
  -18.5360   41.0948  -19.1869 C   0  0  0  0  0  0  0  0  0  0  0  0
  -17.5137   41.7647  -18.3979 C   0  0  0  0  0  0  0  0  0  0  0  0
  -16.7269   41.6197  -17.2609 C   0  0  0  0  0  0  0  0  0  0  0  0
  -16.0193   42.7415  -17.1487 N   0  0  0  0  0  0  0  0  0  0  0  0
  -16.3044   43.5945  -18.1434 C   0  0  0  0  0  0  0  0  0  0  0  0
  -17.2414   42.9674  -18.9194 N   0  0  0  0  0  0  0  0  0  0  0  0
  -15.9312   45.3841  -21.6974 C   0  0  0  0  0  0  0  0  0  0  0  0
  -15.7271   46.2731  -22.8880 C   0  0  0  0  0  0  0  0  0  0  0  0
  -15.8812   47.7381  -22.5569 C   0  0  0  0  0  0  0  0  0  0  0  0
  -16.9920   48.0024  -21.5724 C   0  0  0  0  0  0  0  0  0  0  0  0
  -16.8352   47.2437  -20.2804 C   0  0  0  0  0  0  0  0  0  0  0  0
  -15.8601   46.1005  -20.3946 C   0  0  0  0  0  0  0  0  0  0  0  0
  1  2  1  0
  2  3  1  0
  3  4  1  0
  4  5  1  0
  5  6  2  0
  6  7  1  0
  7  8  2  0
  8  9  1  0
  9 10  2  0
 10 11  1  0
 11 12  2  0
 12 13  1  0
 13 14  2  0
 14 15  1  0
  2 16  1  0
 16 17  1  0
 17 18  1  0
 18 19  1  0
 19 20  1  0
 20 21  1  0
 15  4  1  0
 21 16  1  0
 10  5  1  0
 15 11  1  0
M  END
$$$$
