
     RDKit          3D

 27 30  0  0  0  0  0  0  0  0999 V2000
  -21.9119   37.4018  -25.0229 C   0  0  0  0  0  0  0  0  0  0  0  0
  -21.8854   36.9553  -23.5688 C   0  0  2  0  0  0  0  0  0  0  0  0
  -22.2596   38.1610  -22.7242 C   0  0  0  0  0  0  0  0  0  0  0  0
  -20.9311   38.7306  -22.4322 C   0  0  1  0  0  0  0  0  0  0  0  0
  -20.8498   39.8431  -21.4440 C   0  0  2  0  0  0  0  0  0  0  0  0
  -21.8382   40.8854  -21.7658 C   0  0  0  0  0  0  0  0  0  0  0  0
  -21.5431   42.2835  -21.3069 C   0  0  0  0  0  0  0  0  0  0  0  0
  -20.0617   42.5590  -21.3554 C   0  0  0  0  0  0  0  0  0  0  0  0
  -19.6677   43.6862  -21.8782 C   0  0  0  0  0  0  0  0  0  0  0  0
  -18.2587   44.0465  -21.9780 C   0  0  0  0  0  0  0  0  0  0  0  0
  -17.8590   45.1239  -22.4752 O   0  0  0  0  0  0  0  0  0  0  0  0
  -17.3263   43.0584  -21.4543 C   0  0  0  0  0  0  0  0  0  0  0  0
  -17.7327   41.9292  -20.9287 C   0  0  0  0  0  0  0  0  0  0  0  0
  -19.1367   41.5651  -20.8178 C   0  0  1  0  0  0  0  0  0  0  0  0
  -19.4562   41.3964  -19.3255 C   0  0  0  0  0  0  0  0  0  0  0  0
  -19.3897   40.2513  -21.4893 C   0  0  2  0  0  0  0  0  0  0  0  0
  -19.0285   40.3577  -22.8216 F   0  0  0  0  0  0  0  0  0  0  0  0
  -18.6213   39.0935  -20.9069 C   0  0  1  0  0  0  0  0  0  0  0  0
  -19.1549   38.6582  -19.6862 O   0  0  0  0  0  0  0  0  0  0  0  0
  -18.7277   37.8846  -21.8509 C   0  0  0  0  0  0  0  0  0  0  0  0
  -20.1559   37.4918  -21.9801 C   0  0  1  0  0  0  0  0  0  0  0  0
  -20.7499   36.8393  -20.7824 C   0  0  0  0  0  0  0  0  0  0  0  0
  -20.4199   36.6408  -23.2287 C   0  0  1  0  0  0  0  0  0  0  0  0
  -20.1839   35.2144  -22.9986 C   0  0  0  0  0  0  0  0  0  0  0  0
  -20.9801   34.4821  -22.4417 O   0  0  0  0  0  0  0  0  0  0  0  0
  -18.9001   34.6333  -23.4729 C   0  0  0  0  0  0  0  0  0  0  0  0
  -18.5539   33.5089  -22.7284 O   0  0  0  0  0  0  0  0  0  0  0  0
  2  1  1  6
  2  3  1  0
  4  3  1  1
  4  5  1  0
  5  6  1  6
  6  7  1  0
  7  8  1  0
  8  9  2  0
  9 10  1  0
 10 11  2  0
 10 12  1  0
 12 13  2  0
 13 14  1  0
 14 15  1  1
 14 16  1  0
 16 17  1  6
 16 18  1  0
 18 19  1  1
 18 20  1  0
 20 21  1  0
 21 22  1  1
 21 23  1  0
 23 24  1  1
 24 25  2  0
 24 26  1  0
 26 27  1  0
 23  2  1  0
 21  4  1  0
 16  5  1  0
 14  8  1  0
M  END
$$$$
