
     RDKit          3D

 22 24  0  0  0  0  0  0  0  0999 V2000
  -17.4570   37.2935  -21.4876 O   0  0  0  0  0  0  0  0  0  0  0  0
  -18.5025   37.8346  -21.9012 C   0  0  0  0  0  0  0  0  0  0  0  0
  -18.6470   39.2558  -22.2605 C   0  0  0  0  0  0  0  0  0  0  0  0
  -17.3182   40.4005  -22.1460 Cl  0  0  0  0  0  0  0  0  0  0  0  0
  -19.8567   39.5115  -22.6559 C   0  0  0  0  0  0  0  0  0  0  0  0
  -20.4070   40.7568  -23.0891 N   0  0  0  0  0  0  0  0  0  0  0  0
  -21.7881   40.8141  -23.5340 C   0  0  0  0  0  0  0  0  0  0  0  0
  -21.7547   41.4300  -24.9326 C   0  0  0  0  0  0  0  0  0  0  0  0
  -21.2517   42.7322  -24.7644 O   0  0  0  0  0  0  0  0  0  0  0  0
  -19.9077   42.6457  -24.4763 C   0  0  0  0  0  0  0  0  0  0  0  0
  -19.6583   41.9885  -23.1122 C   0  0  0  0  0  0  0  0  0  0  0  0
  -20.6051   38.2248  -22.5763 C   0  0  0  0  0  0  0  0  0  0  0  0
  -21.8183   38.1313  -22.8943 O   0  0  0  0  0  0  0  0  0  0  0  0
  -19.7476   37.2153  -22.1102 N   0  0  0  0  0  0  0  0  0  0  0  0
  -20.1168   35.8402  -21.9048 C   0  0  0  0  0  0  0  0  0  0  0  0
  -19.2930   34.8167  -22.3654 C   0  0  0  0  0  0  0  0  0  0  0  0
  -19.5950   33.4728  -22.1976 C   0  0  0  0  0  0  0  0  0  0  0  0
  -20.7437   33.1263  -21.5563 C   0  0  0  0  0  0  0  0  0  0  0  0
  -21.2018   31.4588  -21.3015 Cl  0  0  0  0  0  0  0  0  0  0  0  0
  -21.5871   34.0998  -21.0848 C   0  0  0  0  0  0  0  0  0  0  0  0
  -23.0893   33.7114  -20.2462 Cl  0  0  0  0  0  0  0  0  0  0  0  0
  -21.2642   35.4456  -21.2643 C   0  0  0  0  0  0  0  0  0  0  0  0
  1  2  2  0
  2  3  1  0
  3  4  1  0
  3  5  2  0
  5  6  1  0
  6  7  1  0
  7  8  1  0
  8  9  1  0
  9 10  1  0
 10 11  1  0
  5 12  1  0
 12 13  2  0
 12 14  1  0
 14 15  1  0
 15 16  2  0
 16 17  1  0
 17 18  2  0
 18 19  1  0
 18 20  1  0
 20 21  1  0
 20 22  2  0
 14  2  1  0
 22 15  1  0
 11  6  1  0
M  END
$$$$
