
     RDKit          3D

 30 31  0  0  0  0  0  0  0  0999 V2000
  -22.2462    2.0411  -30.2175 C   0  0  0  0  0  0  0  0  0  0  0  0
  -21.8162    2.0532  -31.5700 O   0  0  0  0  0  0  0  0  0  0  0  0
  -20.6153    1.4446  -31.9521 C   0  0  0  0  0  0  0  0  0  0  0  0
  -19.8042    0.8065  -31.0267 C   0  0  0  0  0  0  0  0  0  0  0  0
  -18.6250    0.2153  -31.4272 C   0  0  0  0  0  0  0  0  0  0  0  0
  -18.1951    0.2264  -32.7497 C   0  0  0  0  0  0  0  0  0  0  0  0
  -16.9360   -0.4121  -33.1005 C   0  0  2  0  0  0  0  0  0  0  0  0
  -15.7536    0.7635  -33.8091 S   0  0  0  0  0  0  0  0  0  0  0  0
  -14.1406    0.0256  -33.7530 C   0  0  0  0  0  0  0  0  0  0  0  0
  -13.2003    1.0430  -33.7679 C   0  0  0  0  0  0  0  0  0  0  0  0
  -11.8563    0.7782  -33.7388 C   0  0  0  0  0  0  0  0  0  0  0  0
  -11.4482   -0.5325  -33.6950 C   0  0  0  0  0  0  0  0  0  0  0  0
  -12.4088   -1.5385  -33.6809 C   0  0  0  0  0  0  0  0  0  0  0  0
  -13.7664   -1.2984  -33.7087 C   0  0  0  0  0  0  0  0  0  0  0  0
  -14.5338   -2.4946  -33.6825 N   0  0  0  0  0  0  0  0  0  0  0  0
  -13.8166   -3.7153  -33.5138 C   0  0  0  0  0  0  0  0  0  0  0  0
  -13.3763   -4.3587  -34.8043 C   0  0  0  0  0  0  0  0  0  0  0  0
  -12.6579   -5.5794  -34.5501 N   0  0  0  0  0  0  0  0  0  0  0  0
  -12.2315   -6.2341  -35.7706 C   0  0  0  0  0  0  0  0  0  0  0  0
  -11.5085   -5.4392  -33.7158 C   0  0  0  0  0  0  0  0  0  0  0  0
  -15.9747   -2.5772  -33.8114 C   0  0  0  0  0  0  0  0  0  0  0  0
  -16.3780   -3.7644  -33.6767 O   0  0  0  0  0  0  0  0  0  0  0  0
  -17.0177   -1.5595  -34.0624 C   0  0  2  0  0  0  0  0  0  0  0  0
  -16.9399   -1.1124  -35.4160 O   0  0  0  0  0  0  0  0  0  0  0  0
  -17.9602   -1.3314  -36.3233 C   0  0  0  0  0  0  0  0  0  0  0  0
  -17.9227   -0.8853  -37.7370 C   0  0  0  0  0  0  0  0  0  0  0  0
  -19.0015   -1.9473  -35.9509 O   0  0  0  0  0  0  0  0  0  0  0  0
  -19.0032    0.8567  -33.6470 C   0  0  0  0  0  0  0  0  0  0  0  0
  -20.2042    1.4645  -33.2663 C   0  0  0  0  0  0  0  0  0  0  0  0
  -16.3923   -1.0537  -33.5405 Cl  0  0  0  0  0  0  0  0  0  0  0  0
  1  2  1  0
  2  3  1  0
  3  4  2  0
  4  5  1  0
  5  6  2  0
  7  6  1  6
  7  8  1  0
  8  9  1  0
  9 10  2  0
 10 11  1  0
 11 12  2  0
 12 13  1  0
 13 14  2  0
 14 15  1  0
 15 16  1  0
 16 17  1  0
 17 18  1  0
 18 19  1  0
 18 20  1  0
 15 21  1  0
 21 22  2  0
 21 23  1  0
 23 24  1  6
 24 25  1  0
 25 26  1  0
 25 27  2  0
  6 28  1  0
 28 29  2  0
 29  3  1  0
 23  7  1  0
 14  9  1  0
M  END
$$$$
