
     RDKit          3D

 15 15  0  0  0  0  0  0  0  0999 V2000
  -13.7763   17.6416  -43.1024 C   0  0  0  0  0  0  0  0  0  0  0  0
  -15.0501   18.1298  -42.6405 N   0  0  0  0  0  0  0  0  0  0  0  0
  -16.0337   18.6080  -43.5759 C   0  0  0  0  0  0  0  0  0  0  0  0
  -15.3206   18.1333  -41.2602 C   0  0  0  0  0  0  0  0  0  0  0  0
  -14.3426   17.7101  -40.4287 N   0  0  0  0  0  0  0  0  0  0  0  0
  -14.4840   17.6685  -39.0928 C   0  0  0  0  0  0  0  0  0  0  0  0
  -13.4253   17.2150  -38.2579 N   0  0  0  0  0  0  0  0  0  0  0  0
  -13.6259   17.1982  -36.8213 C   0  0  0  0  0  0  0  0  0  0  0  0
  -12.1690   16.7744  -38.7811 C   0  0  0  0  0  0  0  0  0  0  0  0
  -15.6685   18.0752  -38.6007 N   0  0  0  0  0  0  0  0  0  0  0  0
  -16.6720   18.5041  -39.3790 C   0  0  0  0  0  0  0  0  0  0  0  0
  -17.9186   18.9328  -38.8696 N   0  0  0  0  0  0  0  0  0  0  0  0
  -18.9573   19.4683  -39.7240 C   0  0  0  0  0  0  0  0  0  0  0  0
  -18.1520   18.8277  -37.4453 C   0  0  0  0  0  0  0  0  0  0  0  0
  -16.4797   18.5266  -40.7118 N   0  0  0  0  0  0  0  0  0  0  0  0
  1  2  1  0
  2  3  1  0
  2  4  1  0
  4  5  2  0
  5  6  1  0
  6  7  1  0
  7  8  1  0
  7  9  1  0
  6 10  2  0
 10 11  1  0
 11 12  1  0
 12 13  1  0
 12 14  1  0
 11 15  2  0
 15  4  1  0
M  END
$$$$
