
     RDKit          3D

 42 47  0  0  0  0  0  0  0  0999 V2000
  -25.1233    5.7428  -23.5392 C   0  0  0  0  0  0  0  0  0  0  0  0
  -25.5034    5.5913  -24.9848 C   0  0  0  0  0  0  0  0  0  0  0  0
  -24.9941    4.4419  -25.6750 C   0  0  0  0  0  0  0  0  0  0  0  0
  -24.1512    3.5218  -25.1353 N   0  0  0  0  0  0  0  0  0  0  0  0
  -23.7883    2.6521  -26.0157 C   0  0  0  0  0  0  0  0  0  0  0  0
  -22.9007    1.5572  -25.8948 C   0  0  0  0  0  0  0  0  0  0  0  0
  -22.3744    1.2113  -24.5533 C   0  0  0  0  0  0  0  0  0  0  0  0
  -22.6675    0.8790  -26.9851 C   0  0  0  0  0  0  0  0  0  0  0  0
  -23.1883    1.1070  -28.2612 C   0  0  0  0  0  0  0  0  0  0  0  0
  -22.8320    0.4162  -29.4095 N   0  0  0  0  0  0  0  0  0  0  0  0
  -21.9746    0.8905  -30.4643 C   0  0  0  0  0  0  0  0  0  0  0  0
  -22.7367    0.8773  -31.8101 C   0  0  0  0  0  0  0  0  0  0  0  0
  -23.7305   -0.0918  -31.7345 N   0  0  0  0  0  0  0  0  0  0  0  0
  -25.0954    0.1000  -31.6503 C   0  0  0  0  0  0  0  0  0  0  0  0
  -26.0251   -0.3739  -32.6411 C   0  0  0  0  0  0  0  0  0  0  0  0
  -25.9421   -1.1017  -33.5748 O   0  0  0  0  0  0  0  0  0  0  0  0
  -27.4265    0.1510  -32.4319 N   0  0  0  0  0  0  0  0  0  0  0  0
  -28.1053    0.8629  -31.4088 C   0  0  0  0  0  0  0  0  0  0  0  0
  -29.2510    1.1569  -32.3560 C   0  0  0  0  0  0  0  0  0  0  0  0
  -29.1555    2.4371  -32.8590 O   0  0  0  0  0  0  0  0  0  0  0  0
  -28.6554    0.0648  -33.1678 C   0  0  0  0  0  0  0  0  0  0  0  0
  -23.2830   -1.3079  -31.0498 C   0  0  0  0  0  0  0  0  0  0  0  0
  -23.3078   -0.9798  -29.5821 C   0  0  0  0  0  0  0  0  0  0  0  0
  -24.0881    2.2157  -28.2716 C   0  0  0  0  0  0  0  0  0  0  0  0
  -24.3710    2.9403  -27.2231 N   0  0  0  0  0  0  0  0  0  0  0  0
  -25.1357    4.0569  -27.0231 C   0  0  0  0  0  0  0  0  0  0  0  0
  -26.0634    4.6036  -27.8766 N   0  0  0  0  0  0  0  0  0  0  0  0
  -25.5217    5.1763  -29.1854 C   0  0  0  0  0  0  0  0  0  0  0  0
  -27.4922    4.7682  -27.7733 C   0  0  0  0  0  0  0  0  0  0  0  0
  -28.5537    4.2036  -27.9770 N   0  0  0  0  0  0  0  0  0  0  0  0
  -29.6100    4.8282  -27.9461 C   0  0  0  0  0  0  0  0  0  0  0  0
  -30.8810    4.1145  -28.6437 C   0  0  0  0  0  0  0  0  0  0  0  0
  -32.0781    4.2138  -28.0759 C   0  0  0  0  0  0  0  0  0  0  0  0
  -33.1954    3.5407  -28.3016 C   0  0  0  0  0  0  0  0  0  0  0  0
  -33.0539    2.5379  -29.3519 C   0  0  0  0  0  0  0  0  0  0  0  0
  -34.1432    1.7975  -29.5539 F   0  0  0  0  0  0  0  0  0  0  0  0
  -31.8434    2.4321  -29.9506 C   0  0  0  0  0  0  0  0  0  0  0  0
  -30.7019    3.1830  -29.6587 C   0  0  0  0  0  0  0  0  0  0  0  0
  -30.1279    5.9943  -27.7472 C   0  0  0  0  0  0  0  0  0  0  0  0
  -30.5771    7.3248  -27.5310 C   0  0  0  0  0  0  0  0  0  0  0  0
  -30.9356    8.4123  -27.3451 N   0  0  0  0  0  0  0  0  0  0  0  0
  -28.0414    6.5434  -27.4502 S   0  0  0  0  0  0  0  0  0  0  0  0
  1  2  1  0
  2  3  1  0
  3  4  1  0
  4  5  2  0
  5  6  1  0
  6  7  1  0
  6  8  2  0
  8  9  1  0
  9 10  1  0
 10 11  1  0
 11 12  1  0
 12 13  1  0
 13 14  1  0
 14 15  1  0
 15 16  2  0
 15 17  1  0
 17 18  1  0
 18 19  1  0
 19 20  1  0
 19 21  1  0
 13 22  1  0
 22 23  1  0
  9 24  2  0
 24 25  1  0
 25 26  1  0
 26 27  1  0
 27 28  1  0
 27 29  1  0
 29 30  2  0
 30 31  1  0
 31 32  1  0
 32 33  2  0
 33 34  1  0
 34 35  2  0
 35 36  1  0
 35 37  1  0
 37 38  2  0
 31 39  2  0
 39 40  1  0
 40 41  3  0
 39 42  1  0
 26  3  2  0
 42 29  1  0
 25  5  1  0
 38 32  1  0
 23 10  1  0
 21 17  1  0
M  END
$$$$
