
     RDKit          3D

 24 25  0  0  0  0  0  0  0  0999 V2000
  -14.0779    4.3320  -30.5712 C   0  0  0  0  0  0  0  0  0  0  0  0
  -13.3639    3.5406  -31.6385 C   0  0  0  0  0  0  0  0  0  0  0  0
  -13.4800    2.0465  -31.4304 C   0  0  0  0  0  0  0  0  0  0  0  0
  -12.1009    1.3918  -31.4955 C   0  0  0  0  0  0  0  0  0  0  0  0
  -11.2978    1.9008  -30.3371 C   0  0  0  0  0  0  0  0  0  0  0  0
  -14.3024    1.4585  -32.5288 C   0  0  0  0  0  0  0  0  0  0  0  0
  -14.1033    1.7481  -33.7327 O   0  0  0  0  0  0  0  0  0  0  0  0
  -15.3536    0.5357  -32.2170 N   0  0  0  0  0  0  0  0  0  0  0  0
  -16.3252    0.2163  -33.1906 C   0  0  0  0  0  0  0  0  0  0  0  0
  -15.9551   -0.0372  -34.9532 S   0  0  0  0  0  0  0  0  0  0  0  0
  -17.5849   -0.3631  -35.4480 C   0  0  0  0  0  0  0  0  0  0  0  0
  -18.3304   -0.2640  -34.2474 C   0  0  0  0  0  0  0  0  0  0  0  0
  -17.6577    0.0285  -33.1424 C   0  0  0  0  0  0  0  0  0  0  0  0
  -18.3406    0.1767  -31.8417 C   0  0  0  0  0  0  0  0  0  0  0  0
  -18.8837    0.3153  -30.8067 N   0  0  0  0  0  0  0  0  0  0  0  0
  -19.7992   -0.5388  -34.5358 C   0  0  0  0  0  0  0  0  0  0  0  0
  -19.9244   -1.8964  -35.2081 C   0  0  0  0  0  0  0  0  0  0  0  0
  -19.2091   -1.9207  -36.4918 C   0  0  0  0  0  0  0  0  0  0  0  0
  -19.9615   -2.2863  -37.7215 C   0  0  0  0  0  0  0  0  0  0  0  0
  -21.1428   -1.2912  -37.7816 C   0  0  0  0  0  0  0  0  0  0  0  0
  -19.1028   -1.9546  -38.9245 C   0  0  0  0  0  0  0  0  0  0  0  0
  -20.5755   -3.6265  -37.7880 C   0  0  0  0  0  0  0  0  0  0  0  0
  -21.4454   -4.0739  -36.6777 C   0  0  0  0  0  0  0  0  0  0  0  0
  -18.3274   -0.6858  -36.7245 C   0  0  0  0  0  0  0  0  0  0  0  0
  1  2  1  0
  2  3  1  0
  3  4  1  0
  4  5  1  0
  3  6  1  0
  6  7  2  0
  6  8  1  0
  8  9  1  0
  9 10  1  0
 10 11  1  0
 11 12  2  0
 12 13  1  0
 13 14  1  0
 14 15  3  0
 12 16  1  0
 16 17  1  0
 17 18  1  0
 18 19  1  0
 19 20  1  0
 19 21  1  0
 19 22  1  0
 22 23  1  0
 18 24  1  0
 13  9  2  0
 24 11  1  0
M  END
$$$$
