
     RDKit          3D

 30 32  0  0  0  0  0  0  0  0999 V2000
  -24.4984   22.8501  -35.9240 C   0  0  0  0  0  0  0  0  0  0  0  0
  -23.9736   21.5242  -36.2910 N   0  0  0  0  0  0  0  0  0  0  0  0
  -22.8948   20.9357  -35.6228 C   0  0  0  0  0  0  0  0  0  0  0  0
  -21.8191   21.5939  -35.5931 O   0  0  0  0  0  0  0  0  0  0  0  0
  -22.9438   19.6281  -34.9709 C   0  0  0  0  0  0  0  0  0  0  0  0
  -24.1507   18.9670  -34.8584 C   0  0  0  0  0  0  0  0  0  0  0  0
  -24.2696   17.7355  -34.2564 C   0  0  0  0  0  0  0  0  0  0  0  0
  -23.1388   17.1377  -33.7450 C   0  0  0  0  0  0  0  0  0  0  0  0
  -23.2857   15.8000  -33.0930 C   0  0  0  0  0  0  0  0  0  0  0  0
  -21.9054   17.7784  -33.8423 C   0  0  0  0  0  0  0  0  0  0  0  0
  -20.7680   17.1102  -33.2924 N   0  0  0  0  0  0  0  0  0  0  0  0
  -20.3693   17.2941  -32.0239 C   0  0  0  0  0  0  0  0  0  0  0  0
  -21.1091   18.2319  -31.1301 C   0  0  0  0  0  0  0  0  0  0  0  0
  -19.2852   16.6540  -31.4773 C   0  0  0  0  0  0  0  0  0  0  0  0
  -18.5609   15.7772  -32.2551 C   0  0  0  0  0  0  0  0  0  0  0  0
  -17.4537   15.0894  -31.7811 O   0  0  0  0  0  0  0  0  0  0  0  0
  -17.0465   15.3650  -30.4586 C   0  0  0  0  0  0  0  0  0  0  0  0
  -15.9480   14.4806  -30.0057 C   0  0  0  0  0  0  0  0  0  0  0  0
  -14.8385   14.2244  -30.8137 C   0  0  0  0  0  0  0  0  0  0  0  0
  -13.8337   13.3961  -30.3634 C   0  0  0  0  0  0  0  0  0  0  0  0
  -13.8598   12.7914  -29.1334 C   0  0  0  0  0  0  0  0  0  0  0  0
  -12.8412   11.9856  -28.7453 F   0  0  0  0  0  0  0  0  0  0  0  0
  -14.9639   13.0491  -28.3347 C   0  0  0  0  0  0  0  0  0  0  0  0
  -15.9757   13.8754  -28.7729 C   0  0  0  0  0  0  0  0  0  0  0  0
  -17.0332   14.0952  -27.9558 F   0  0  0  0  0  0  0  0  0  0  0  0
  -18.9789   15.5985  -33.5511 C   0  0  0  0  0  0  0  0  0  0  0  0
  -17.9816   14.3831  -34.6457 Br  0  0  0  0  0  0  0  0  0  0  0  0
  -20.0807   16.2640  -34.0685 C   0  0  0  0  0  0  0  0  0  0  0  0
  -20.3954   16.0389  -35.2750 O   0  0  0  0  0  0  0  0  0  0  0  0
  -21.8296   19.0110  -34.4529 C   0  0  0  0  0  0  0  0  0  0  0  0
  1  2  1  0
  2  3  1  0
  3  4  2  0
  3  5  1  0
  5  6  2  0
  6  7  1  0
  7  8  2  0
  8  9  1  0
  8 10  1  0
 10 11  1  0
 11 12  1  0
 12 13  1  0
 12 14  2  0
 14 15  1  0
 15 16  1  0
 16 17  1  0
 17 18  1  0
 18 19  2  0
 19 20  1  0
 20 21  2  0
 21 22  1  0
 21 23  1  0
 23 24  2  0
 24 25  1  0
 15 26  2  0
 26 27  1  0
 26 28  1  0
 28 29  2  0
 10 30  2  0
 30  5  1  0
 28 11  1  0
 24 18  1  0
M  END
$$$$
