
     RDKit          3D

 15 16  0  0  0  0  0  0  0  0999 V2000
  -23.9625   19.7324  -32.8237 C   0  0  0  0  0  0  0  0  0  0  0  0
  -23.5179   20.3379  -31.5284 C   0  0  0  0  0  0  0  0  0  0  0  0
  -24.2967   21.1934  -30.8170 C   0  0  0  0  0  0  0  0  0  0  0  0
  -23.9107   21.7725  -29.6095 C   0  0  0  0  0  0  0  0  0  0  0  0
  -24.8479   22.6667  -28.9639 C   0  0  0  0  0  0  0  0  0  0  0  0
  -25.1990   23.8123  -29.9152 C   0  0  0  0  0  0  0  0  0  0  0  0
  -25.7870   24.8995  -29.0078 C   0  0  0  0  0  0  0  0  0  0  0  0
  -27.0039   24.4057  -28.3117 C   0  0  0  0  0  0  0  0  0  0  0  0
  -26.8899   23.0584  -27.7008 C   0  0  0  0  0  0  0  0  0  0  0  0
  -26.1418   22.0525  -28.5311 C   0  0  0  0  0  0  0  0  0  0  0  0
  -22.7045   21.4361  -29.1738 N   0  0  0  0  0  0  0  0  0  0  0  0
  -22.2713   21.9751  -27.9910 O   0  0  0  0  0  0  0  0  0  0  0  0
  -21.9006   20.5965  -29.8403 C   0  0  0  0  0  0  0  0  0  0  0  0
  -20.7560   20.2863  -29.4127 O   0  0  0  0  0  0  0  0  0  0  0  0
  -22.2714   20.0080  -31.0505 C   0  0  0  0  0  0  0  0  0  0  0  0
  1  2  1  0
  2  3  1  0
  3  4  2  0
  4  5  1  0
  5  6  1  0
  6  7  1  0
  7  8  1  0
  8  9  1  0
  9 10  1  0
  4 11  1  0
 11 12  1  0
 11 13  1  0
 13 14  2  0
 13 15  1  0
 15  2  2  0
 10  5  1  0
M  END
$$$$
