
     RDKit          3D

 41 45  0  0  0  0  0  0  0  0999 V2000
  -17.8967   40.1802  -19.3961 C   0  0  0  0  0  0  0  0  0  0  0  0
  -16.7786   41.0099  -19.6584 O   0  0  0  0  0  0  0  0  0  0  0  0
  -16.8534   42.3371  -19.2788 C   0  0  0  0  0  0  0  0  0  0  0  0
  -17.7216   43.2478  -19.8300 C   0  0  0  0  0  0  0  0  0  0  0  0
  -17.7812   44.5692  -19.4387 C   0  0  0  0  0  0  0  0  0  0  0  0
  -18.6606   45.4604  -20.0012 C   0  0  0  0  0  0  0  0  0  0  0  0
  -19.5275   45.0912  -21.0640 N   0  0  0  0  0  0  0  0  0  0  0  0
  -20.3433   43.9167  -20.9343 C   0  0  0  0  0  0  0  0  0  0  0  0
  -21.1347   43.5532  -22.1468 C   0  0  0  0  0  0  0  0  0  0  0  0
  -21.0850   44.4931  -23.2256 N   0  0  0  0  0  0  0  0  0  0  0  0
  -21.2258   44.1443  -24.5967 C   0  0  0  0  0  0  0  0  0  0  0  0
  -21.4735   42.9506  -24.9437 O   0  0  0  0  0  0  0  0  0  0  0  0
  -21.1058   45.0708  -25.6658 N   0  0  0  0  0  0  0  0  0  0  0  0
  -21.6116   44.8271  -26.9603 C   0  0  0  0  0  0  0  0  0  0  0  0
  -21.3849   43.6220  -27.5738 C   0  0  0  0  0  0  0  0  0  0  0  0
  -21.8588   43.3314  -28.8387 C   0  0  0  0  0  0  0  0  0  0  0  0
  -22.5986   44.2876  -29.5353 C   0  0  0  0  0  0  0  0  0  0  0  0
  -23.0302   43.9233  -30.7771 O   0  0  0  0  0  0  0  0  0  0  0  0
  -23.5577   42.6812  -31.1065 C   0  0  0  0  0  0  0  0  0  0  0  0
  -23.8031   42.6433  -32.6112 C   0  0  0  0  0  0  0  0  0  0  0  0
  -22.5595   41.5724  -30.7745 C   0  0  0  0  0  0  0  0  0  0  0  0
  -22.8260   45.4979  -28.9189 C   0  0  0  0  0  0  0  0  0  0  0  0
  -22.3333   45.7656  -27.6350 C   0  0  0  0  0  0  0  0  0  0  0  0
  -20.8784   45.9027  -22.8562 C   0  0  0  0  0  0  0  0  0  0  0  0
  -19.5164   45.9600  -22.2260 C   0  0  0  0  0  0  0  0  0  0  0  0
  -18.7003   46.7927  -19.5720 C   0  0  0  0  0  0  0  0  0  0  0  0
  -17.8255   47.1551  -18.5760 C   0  0  0  0  0  0  0  0  0  0  0  0
  -16.9679   46.2718  -18.0353 N   0  0  0  0  0  0  0  0  0  0  0  0
  -16.9111   44.9932  -18.4276 C   0  0  0  0  0  0  0  0  0  0  0  0
  -16.0385   44.0751  -17.8739 C   0  0  0  0  0  0  0  0  0  0  0  0
  -15.9925   42.7608  -18.2787 C   0  0  0  0  0  0  0  0  0  0  0  0
  -15.1086   41.8993  -17.6968 O   0  0  0  0  0  0  0  0  0  0  0  0
  -14.2771   42.2435  -16.5714 C   0  0  0  0  0  0  0  0  0  0  0  0
  -12.8975   42.5508  -17.0578 C   0  0  0  0  0  0  0  0  0  0  0  0
  -11.9161   43.0991  -16.1119 C   0  0  0  0  0  0  0  0  0  0  0  0
  -10.5941   42.5798  -16.1097 N   0  0  0  0  0  0  0  0  0  0  0  0
  -10.5123   41.1896  -16.0224 C   0  0  0  0  0  0  0  0  0  0  0  0
   -9.5522   40.5850  -15.0457 C   0  0  0  0  0  0  0  0  0  0  0  0
   -8.9550   41.4774  -14.0272 C   0  0  0  0  0  0  0  0  0  0  0  0
   -9.6355   42.7992  -13.8739 C   0  0  0  0  0  0  0  0  0  0  0  0
   -9.7768   43.3828  -15.2679 C   0  0  0  0  0  0  0  0  0  0  0  0
  1  2  1  0
  2  3  1  0
  3  4  2  0
  4  5  1  0
  5  6  2  0
  6  7  1  0
  7  8  1  0
  8  9  1  0
  9 10  1  0
 10 11  1  0
 11 12  2  0
 11 13  1  0
 13 14  1  0
 14 15  2  0
 15 16  1  0
 16 17  2  0
 17 18  1  0
 18 19  1  0
 19 20  1  0
 19 21  1  0
 17 22  1  0
 22 23  2  0
 10 24  1  0
 24 25  1  0
  6 26  1  0
 26 27  2  0
 27 28  1  0
 28 29  2  0
 29 30  1  0
 30 31  2  0
 31 32  1  0
 32 33  1  0
 33 34  1  0
 34 35  1  0
 35 36  1  0
 36 37  1  0
 37 38  1  0
 38 39  1  0
 39 40  1  0
 40 41  1  0
 31  3  1  0
 41 36  1  0
 29  5  1  0
 25  7  1  0
 23 14  1  0
M  END
$$$$
