
     RDKit          3D

 17 18  0  0  0  0  0  0  0  0999 V2000
  -27.4985   25.6095  -39.2379 O   0  0  0  0  0  0  0  0  0  0  0  0
  -28.1147   25.1344  -38.1098 C   0  0  0  0  0  0  0  0  0  0  0  0
  -29.5061   25.0860  -38.1108 C   0  0  0  0  0  0  0  0  0  0  0  0
  -30.2120   24.6323  -37.0440 C   0  0  0  0  0  0  0  0  0  0  0  0
  -31.9493   24.5454  -36.9770 Cl  0  0  0  0  0  0  0  0  0  0  0  0
  -29.5256   24.2098  -35.9335 C   0  0  0  0  0  0  0  0  0  0  0  0
  -28.1707   24.2435  -35.8983 C   0  0  0  0  0  0  0  0  0  0  0  0
  -27.3928   24.7221  -37.0208 C   0  0  0  0  0  0  0  0  0  0  0  0
  -26.1187   24.7178  -36.8996 O   0  0  0  0  0  0  0  0  0  0  0  0
  -24.8353   24.7136  -36.7775 C   0  0  0  0  0  0  0  0  0  0  0  0
  -24.0932   23.8755  -37.6770 C   0  0  0  0  0  0  0  0  0  0  0  0
  -22.7460   23.7861  -37.6473 C   0  0  0  0  0  0  0  0  0  0  0  0
  -22.0356   24.5214  -36.7229 C   0  0  0  0  0  0  0  0  0  0  0  0
  -20.2895   24.4069  -36.6822 Cl  0  0  0  0  0  0  0  0  0  0  0  0
  -22.7163   25.3281  -35.8535 C   0  0  0  0  0  0  0  0  0  0  0  0
  -24.0801   25.4230  -35.8784 C   0  0  0  0  0  0  0  0  0  0  0  0
  -24.8163   26.5176  -34.6806 Cl  0  0  0  0  0  0  0  0  0  0  0  0
  1  2  1  0
  2  3  2  0
  3  4  1  0
  4  5  1  0
  4  6  2  0
  6  7  1  0
  7  8  2  0
  8  9  1  0
  9 10  1  0
 10 11  2  0
 11 12  1  0
 12 13  2  0
 13 14  1  0
 13 15  1  0
 15 16  2  0
 16 17  1  0
  8  2  1  0
 16 10  1  0
M  END
$$$$
