
     RDKit          3D

 34 38  0  0  0  0  0  0  0  0999 V2000
  -17.4473   -5.8996  -37.7577 C   0  0  0  0  0  0  0  0  0  0  0  0
  -18.2698   -5.4370  -36.6379 N   0  0  0  0  0  0  0  0  0  0  0  0
  -17.3686   -5.1462  -35.5548 C   0  0  0  0  0  0  0  0  0  0  0  0
  -18.0973   -4.4299  -34.4389 C   0  0  0  0  0  0  0  0  0  0  0  0
  -18.5734   -3.0803  -34.9323 C   0  0  0  0  0  0  0  0  0  0  0  0
  -19.7757   -2.6376  -34.2534 N   0  0  0  0  0  0  0  0  0  0  0  0
  -19.7316   -1.5577  -33.3191 C   0  0  0  0  0  0  0  0  0  0  0  0
  -18.6071   -0.8795  -33.1026 N   0  0  0  0  0  0  0  0  0  0  0  0
  -18.5293    0.1493  -32.2244 C   0  0  0  0  0  0  0  0  0  0  0  0
  -17.3425    0.8789  -31.9836 N   0  0  0  0  0  0  0  0  0  0  0  0
  -16.0811    0.5668  -32.6167 C   0  0  0  0  0  0  0  0  0  0  0  0
  -14.9058    0.6307  -31.9204 C   0  0  0  0  0  0  0  0  0  0  0  0
  -13.7293    0.3266  -32.5581 C   0  0  0  0  0  0  0  0  0  0  0  0
  -13.6627   -0.0462  -33.8839 C   0  0  0  0  0  0  0  0  0  0  0  0
  -12.4459   -0.3404  -34.4703 O   0  0  0  0  0  0  0  0  0  0  0  0
  -11.3113    0.3677  -34.1377 C   0  0  0  0  0  0  0  0  0  0  0  0
  -11.2608    1.7340  -34.2482 C   0  0  0  0  0  0  0  0  0  0  0  0
  -10.1003    2.4394  -33.9063 C   0  0  0  0  0  0  0  0  0  0  0  0
   -8.9934    1.7345  -33.4507 C   0  0  0  0  0  0  0  0  0  0  0  0
   -9.0309    0.3611  -33.3349 C   0  0  0  0  0  0  0  0  0  0  0  0
  -10.2074   -0.3105  -33.6857 C   0  0  0  0  0  0  0  0  0  0  0  0
  -14.8589   -0.1028  -34.5621 C   0  0  0  0  0  0  0  0  0  0  0  0
  -16.0517    0.1984  -33.9413 C   0  0  0  0  0  0  0  0  0  0  0  0
  -19.6946    0.4681  -31.5506 C   0  0  0  0  0  0  0  0  0  0  0  0
  -19.7606    1.4958  -30.6247 C   0  0  0  0  0  0  0  0  0  0  0  0
  -18.7316    2.1572  -30.3908 O   0  0  0  0  0  0  0  0  0  0  0  0
  -20.8809    1.8184  -29.9627 N   0  0  0  0  0  0  0  0  0  0  0  0
  -22.0281    1.1535  -30.1598 C   0  0  0  0  0  0  0  0  0  0  0  0
  -22.0179    0.1192  -31.0727 C   0  0  0  0  0  0  0  0  0  0  0  0
  -23.6504   -0.8238  -31.3504 Br  0  0  0  0  0  0  0  0  0  0  0  0
  -20.8755   -0.2283  -31.7640 C   0  0  0  0  0  0  0  0  0  0  0  0
  -20.8605   -1.2312  -32.6508 N   0  0  0  0  0  0  0  0  0  0  0  0
  -18.7400   -3.0298  -36.4138 C   0  0  0  0  0  0  0  0  0  0  0  0
  -19.1335   -4.3616  -37.0105 C   0  0  0  0  0  0  0  0  0  0  0  0
  1  2  1  0
  2  3  1  0
  3  4  1  0
  4  5  1  0
  5  6  1  0
  6  7  1  0
  7  8  2  0
  8  9  1  0
  9 10  1  0
 10 11  1  0
 11 12  2  0
 12 13  1  0
 13 14  2  0
 14 15  1  0
 15 16  1  0
 16 17  2  0
 17 18  1  0
 18 19  2  0
 19 20  1  0
 20 21  2  0
 14 22  1  0
 22 23  2  0
  9 24  2  0
 24 25  1  0
 25 26  2  0
 25 27  1  0
 27 28  1  0
 28 29  2  0
 29 30  1  0
 29 31  1  0
 31 32  2  0
  5 33  1  0
 33 34  1  0
 34  2  1  0
 32  7  1  0
 23 11  1  0
 31 24  1  0
 21 16  1  0
M  END
$$$$
