
     RDKit          3D

 20 20  0  0  0  0  0  0  0  0999 V2000
  -22.0767   38.6665  -25.2097 C   0  0  0  0  0  0  0  0  0  0  0  0
  -21.9340   37.3033  -24.6187 C   0  0  2  0  0  0  0  0  0  0  0  0
  -20.7910   37.3008  -23.6693 C   0  0  0  0  0  0  0  0  0  0  0  0
  -20.3179   36.2950  -22.9276 N   0  0  0  0  0  0  0  0  0  0  0  0
  -19.2707   36.7303  -22.2097 C   0  0  0  0  0  0  0  0  0  0  0  0
  -18.4189   36.1476  -21.3005 C   0  0  0  0  0  0  0  0  0  0  0  0
  -17.4037   36.8564  -20.7040 C   0  0  0  0  0  0  0  0  0  0  0  0
  -17.2051   38.1861  -21.0007 C   0  0  0  0  0  0  0  0  0  0  0  0
  -18.0489   38.8034  -21.9153 C   0  0  0  0  0  0  0  0  0  0  0  0
  -17.8579   40.2076  -22.2441 C   0  0  0  0  0  0  0  0  0  0  0  0
  -18.6510   40.9394  -23.1563 N   0  0  0  0  0  0  0  0  0  0  0  0
  -16.8803   40.7888  -21.6345 O   0  0  0  0  0  0  0  0  0  0  0  0
  -19.0720   38.0724  -22.5105 C   0  0  0  0  0  0  0  0  0  0  0  0
  -20.0196   38.3766  -23.4025 N   0  0  0  0  0  0  0  0  0  0  0  0
  -21.6455   36.2456  -25.6723 C   0  0  0  0  0  0  0  0  0  0  0  0
  -22.8310   35.2915  -25.5736 C   0  0  0  0  0  0  0  0  0  0  0  0
  -23.9020   36.2285  -25.0269 C   0  0  0  0  0  0  0  0  0  0  0  0
  -23.1597   36.8929  -23.9596 N   0  0  0  0  0  0  0  0  0  0  0  0
  -19.8886   37.9018  -23.3202 Cl  0  0  0  0  0  0  0  0  0  0  0  0
  -19.8855   37.9036  -23.3184 Cl  0  0  0  0  0  0  0  0  0  0  0  0
  2  1  1  6
  2  3  1  0
  3  4  2  0
  4  5  1  0
  5  6  2  0
  6  7  1  0
  7  8  2  0
  8  9  1  0
  9 10  1  0
 10 11  1  0
 10 12  2  0
  9 13  2  0
 13 14  1  0
  2 15  1  0
 15 16  1  0
 16 17  1  0
 17 18  1  0
 18  2  1  0
 14  3  1  0
 13  5  1  0
M  END
$$$$
