
     RDKit          3D

 36 38  0  0  0  0  0  0  0  0999 V2000
  -23.3005   16.4020  -34.5637 C   0  0  0  0  0  0  0  0  0  0  0  0
  -23.2716   15.7834  -33.1353 C   0  0  2  0  0  0  0  0  0  0  0  0
  -22.2446   16.2693  -32.4005 O   0  0  0  0  0  0  0  0  0  0  0  0
  -21.9692   17.3823  -31.6741 C   0  0  0  0  0  0  0  0  0  0  0  0
  -23.0493   18.0025  -30.9830 C   0  0  0  0  0  0  0  0  0  0  0  0
  -22.8843   19.1225  -30.2261 C   0  0  0  0  0  0  0  0  0  0  0  0
  -21.6638   19.7412  -30.0702 C   0  0  0  0  0  0  0  0  0  0  0  0
  -21.4696   21.1799  -29.0938 S   0  0  0  0  0  6  0  0  0  0  0  0
  -22.7374   22.3595  -29.3540 C   0  0  0  0  0  0  0  0  0  0  0  0
  -20.1299   21.7938  -29.4219 O   0  0  0  0  0  0  0  0  0  0  0  0
  -21.4356   20.8340  -27.6195 O   0  0  0  0  0  0  0  0  0  0  0  0
  -20.6150   19.1554  -30.7296 C   0  0  0  0  0  0  0  0  0  0  0  0
  -20.7580   17.9984  -31.5179 C   0  0  0  0  0  0  0  0  0  0  0  0
  -19.5693   17.4572  -32.1775 C   0  0  0  0  0  0  0  0  0  0  0  0
  -19.3009   17.8436  -33.3481 O   0  0  0  0  0  0  0  0  0  0  0  0
  -18.7373   16.5094  -31.5050 N   0  0  0  0  0  0  0  0  0  0  0  0
  -17.7099   15.7881  -32.2124 C   0  0  0  0  0  0  0  0  0  0  0  0
  -17.3704   14.5321  -31.4504 C   0  0  0  0  0  0  0  0  0  0  0  0
  -16.9345   14.8924  -30.1160 N   0  0  0  0  0  0  0  0  0  0  0  0
  -15.9551   14.0977  -29.4569 C   0  0  0  0  0  0  0  0  0  0  0  0
  -16.0909   13.7437  -28.1615 N   0  0  0  0  0  0  0  0  0  0  0  0
  -15.1585   12.9888  -27.5395 C   0  0  0  0  0  0  0  0  0  0  0  0
  -14.0222   12.5360  -28.1769 C   0  0  0  0  0  0  0  0  0  0  0  0
  -13.0025   11.7066  -27.4849 C   0  0  0  0  0  0  0  0  0  0  0  0
  -13.0657   10.4447  -28.0514 F   0  0  0  0  0  0  0  0  0  0  0  0
  -13.3647   11.6471  -26.1427 F   0  0  0  0  0  0  0  0  0  0  0  0
  -11.7524   12.2744  -27.6148 F   0  0  0  0  0  0  0  0  0  0  0  0
  -13.8543   12.8820  -29.5043 C   0  0  0  0  0  0  0  0  0  0  0  0
  -14.8213   13.6512  -30.1088 C   0  0  0  0  0  0  0  0  0  0  0  0
  -14.6629   13.9966  -31.4182 F   0  0  0  0  0  0  0  0  0  0  0  0
  -17.5251   16.0654  -29.5022 C   0  0  0  0  0  0  0  0  0  0  0  0
  -18.9234   16.2653  -30.0933 C   0  0  0  0  0  0  0  0  0  0  0  0
  -23.0356   14.2859  -33.4079 C   0  0  0  0  0  0  0  0  0  0  0  0
  -24.0818   13.8116  -34.1666 F   0  0  0  0  0  0  0  0  0  0  0  0
  -22.9171   13.6605  -32.1931 F   0  0  0  0  0  0  0  0  0  0  0  0
  -21.8812   14.1783  -34.1660 F   0  0  0  0  0  0  0  0  0  0  0  0
  2  1  1  6
  2  3  1  0
  3  4  1  0
  4  5  2  0
  5  6  1  0
  6  7  2  0
  7  8  1  0
  8  9  1  0
  8 10  2  0
  8 11  2  0
  7 12  1  0
 12 13  2  0
 13 14  1  0
 14 15  2  0
 14 16  1  0
 16 17  1  0
 17 18  1  0
 18 19  1  0
 19 20  1  0
 20 21  2  0
 21 22  1  0
 22 23  2  0
 23 24  1  0
 24 25  1  0
 24 26  1  0
 24 27  1  0
 23 28  1  0
 28 29  2  0
 29 30  1  0
 19 31  1  0
 31 32  1  0
  2 33  1  0
 33 34  1  0
 33 35  1  0
 33 36  1  0
 13  4  1  0
 32 16  1  0
 29 20  1  0
M  END
$$$$
