
     RDKit          3D

 18 18  0  0  0  0  0  0  0  0999 V2000
  -16.0781   42.9606  -17.7483 N   0  0  0  0  0  0  0  0  0  0  0  0
  -16.9835   43.3943  -19.1810 S   0  0  0  0  0  6  0  0  0  0  0  0
  -16.1546   44.2919  -20.0439 O   0  0  0  0  0  0  0  0  0  0  0  0
  -18.1875   44.1653  -18.7160 O   0  0  0  0  0  0  0  0  0  0  0  0
  -17.5417   41.9684  -20.0182 C   0  0  0  0  0  0  0  0  0  0  0  0
  -18.5675   41.1772  -19.5735 C   0  0  0  0  0  0  0  0  0  0  0  0
  -18.9875   40.0319  -20.2649 C   0  0  0  0  0  0  0  0  0  0  0  0
  -18.3812   39.6476  -21.4350 C   0  0  0  0  0  0  0  0  0  0  0  0
  -18.7164   38.5214  -22.2197 N   0  0  0  0  0  0  0  0  0  0  0  0
  -19.7426   37.5879  -21.9774 C   0  0  0  0  0  0  0  0  0  0  0  0
  -20.4251   37.6993  -20.9551 O   0  0  0  0  0  0  0  0  0  0  0  0
  -20.0262   36.4713  -22.9241 C   0  0  0  0  0  0  0  0  0  0  0  0
  -19.5139   35.1661  -22.4055 C   0  0  0  0  0  0  0  0  0  0  0  0
  -18.0482   35.1987  -22.3517 C   0  0  0  0  0  0  0  0  0  0  0  0
  -17.3642   35.0391  -23.3752 O   0  0  0  0  0  0  0  0  0  0  0  0
  -17.4203   35.4118  -21.1410 O   0  0  0  0  0  1  0  0  0  0  0  0
  -17.3366   40.4802  -21.8612 C   0  0  0  0  0  0  0  0  0  0  0  0
  -16.9304   41.5920  -21.1868 C   0  0  0  0  0  0  0  0  0  0  0  0
  1  2  1  0
  2  3  2  0
  2  4  2  0
  2  5  1  0
  5  6  2  0
  6  7  1  0
  7  8  2  0
  8  9  1  0
  9 10  1  0
 10 11  2  0
 10 12  1  0
 12 13  1  0
 13 14  1  0
 14 15  2  0
 14 16  1  0
  8 17  1  0
 17 18  2  0
 18  5  1  0
M  CHG  1  16  -1
M  END
$$$$
