
     RDKit          3D

 25 27  0  0  0  0  0  0  0  0999 V2000
  -20.2327   37.5883  -24.5330 C   0  0  0  0  0  0  0  0  0  0  0  0
  -20.6417   37.3732  -23.0549 C   0  0  1  0  0  0  0  0  0  0  0  0
  -19.8090   36.4077  -22.3701 C   0  0  0  0  0  0  0  0  0  0  0  0
  -18.4538   36.6266  -22.4067 N   0  0  0  0  0  0  0  0  0  0  0  0
  -17.5352   35.8563  -21.8421 C   0  0  0  0  0  0  0  0  0  0  0  0
  -17.9043   34.7610  -21.1677 N   0  0  0  0  0  0  0  0  0  0  0  0
  -19.2063   34.4916  -21.0942 C   0  0  0  0  0  0  0  0  0  0  0  0
  -20.1929   35.2900  -21.6814 C   0  0  0  0  0  0  0  0  0  0  0  0
  -21.4781   34.9678  -21.5468 F   0  0  0  0  0  0  0  0  0  0  0  0
  -20.8118   38.7220  -22.4571 C   0  0  2  0  0  0  0  0  0  0  0  0
  -21.3934   38.5192  -21.1645 O   0  0  0  0  0  0  0  0  0  0  0  0
  -21.7942   39.6353  -23.0881 C   0  0  0  0  0  0  0  0  0  0  0  0
  -23.0574   39.1956  -23.5079 N   0  0  0  0  0  0  0  0  0  0  0  0
  -23.4054   38.8394  -24.7449 C   0  0  0  0  0  0  0  0  0  0  0  0
  -24.6858   38.4387  -24.7454 N   0  0  0  0  0  0  0  0  0  0  0  0
  -25.1484   38.5437  -23.4943 C   0  0  0  0  0  0  0  0  0  0  0  0
  -24.1285   39.0100  -22.7578 N   0  0  0  0  0  0  0  0  0  0  0  0
  -19.5040   39.3608  -22.1249 C   0  0  0  0  0  0  0  0  0  0  0  0
  -18.4991   39.5259  -23.0667 C   0  0  0  0  0  0  0  0  0  0  0  0
  -17.2616   40.0808  -22.7647 C   0  0  0  0  0  0  0  0  0  0  0  0
  -17.0082   40.4900  -21.4736 C   0  0  0  0  0  0  0  0  0  0  0  0
  -15.7936   41.0306  -21.1898 F   0  0  0  0  0  0  0  0  0  0  0  0
  -17.9753   40.3453  -20.5115 C   0  0  0  0  0  0  0  0  0  0  0  0
  -19.2017   39.7854  -20.8561 C   0  0  0  0  0  0  0  0  0  0  0  0
  -20.1485   39.6970  -19.8947 F   0  0  0  0  0  0  0  0  0  0  0  0
  2  1  1  6
  2  3  1  0
  3  4  2  0
  4  5  1  0
  5  6  2  0
  6  7  1  0
  7  8  2  0
  8  9  1  0
  2 10  1  0
 10 11  1  1
 10 12  1  0
 12 13  1  0
 13 14  1  0
 14 15  2  0
 15 16  1  0
 16 17  2  0
 10 18  1  0
 18 19  2  0
 19 20  1  0
 20 21  2  0
 21 22  1  0
 21 23  1  0
 23 24  2  0
 24 25  1  0
  8  3  1  0
 17 13  1  0
 24 18  1  0
M  END
$$$$
