
     RDKit          3D

 31 32  0  0  0  0  0  0  0  0999 V2000
  -21.0190   43.0828  -20.4751 C   0  0  0  0  0  0  0  0  0  0  0  0
  -19.7211   43.7830  -20.4261 C   0  0  0  0  0  0  0  0  0  0  0  0
  -19.6038   45.1118  -20.3439 O   0  0  0  0  0  0  0  0  0  0  0  0
  -18.3775   45.4646  -20.3133 N   0  0  0  0  0  0  0  0  0  0  0  0
  -17.5932   44.3641  -20.3739 C   0  0  0  0  0  0  0  0  0  0  0  0
  -16.1495   44.4579  -20.3788 C   0  0  0  0  0  0  0  0  0  0  0  0
  -15.3485   43.8985  -19.4066 C   0  0  0  0  0  0  0  0  0  0  0  0
  -13.9828   44.0406  -19.4685 C   0  0  0  0  0  0  0  0  0  0  0  0
  -13.3896   44.7332  -20.4833 C   0  0  0  0  0  0  0  0  0  0  0  0
  -14.1701   45.2995  -21.4618 C   0  0  0  0  0  0  0  0  0  0  0  0
  -15.5360   45.1616  -21.4078 C   0  0  0  0  0  0  0  0  0  0  0  0
  -16.4952   45.9055  -22.6946 Cl  0  0  0  0  0  0  0  0  0  0  0  0
  -18.4530   43.2725  -20.4489 C   0  0  0  0  0  0  0  0  0  0  0  0
  -18.0359   41.9127  -20.5840 C   0  0  0  0  0  0  0  0  0  0  0  0
  -16.8187   41.6154  -20.3179 O   0  0  0  0  0  0  0  0  0  0  0  0
  -18.8210   40.8039  -20.9942 N   0  0  0  0  0  0  0  0  0  0  0  0
  -18.2206   39.5023  -21.0542 C   0  0  2  0  0  0  0  0  0  0  0  0
  -17.8342   39.0588  -22.4486 C   0  0  0  0  0  0  0  0  0  0  0  0
  -17.0331   39.6338  -23.2453 O   0  0  0  0  0  0  0  0  0  0  0  0
  -18.6521   37.9235  -22.4073 N   0  0  0  0  0  0  0  0  0  0  0  0
  -19.3943   36.7152  -22.6544 C   0  0  1  0  0  0  0  0  0  0  0  0
  -19.1876   35.7956  -21.5238 C   0  0  0  0  0  0  0  0  0  0  0  0
  -18.1173   35.1226  -21.4103 O   0  0  0  0  0  0  0  0  0  0  0  0
  -20.1519   35.6293  -20.5438 O   0  0  0  0  0  1  0  0  0  0  0  0
  -20.8726   37.1468  -22.6946 C   0  0  0  0  0  0  0  0  0  0  0  0
  -21.7955   36.0341  -22.3401 C   0  0  0  0  0  0  0  0  0  0  0  0
  -21.2186   37.7444  -24.0279 C   0  0  0  0  0  0  0  0  0  0  0  0
  -20.8271   38.4339  -21.3679 S   0  0  0  0  0  0  0  0  0  0  0  0
  -19.0259   38.2943  -21.0198 C   0  0  2  0  0  0  0  0  0  0  0  0
  -18.1524   40.4772  -21.4984 O   0  0  0  0  0  0  0  0  0  0  0  0
  -18.4719   40.6385  -21.3180 Na  0  0  0  0  0 15  0  0  0  0  0  0
  1  2  1  0
  2  3  1  0
  3  4  1  0
  4  5  2  0
  5  6  1  0
  6  7  2  0
  7  8  1  0
  8  9  2  0
  9 10  1  0
 10 11  2  0
 11 12  1  0
  5 13  1  0
 13 14  1  0
 14 15  2  0
 14 16  1  0
 17 16  1  6
 17 18  1  0
 18 19  2  0
 18 20  1  0
 20 21  1  0
 21 22  1  1
 22 23  2  0
 22 24  1  0
 21 25  1  0
 25 26  1  0
 25 27  1  0
 25 28  1  0
 29 28  1  6
 13  2  2  0
 29 17  1  0
 11  6  1  0
 29 20  1  0
M  CHG  2  24  -1  31   1
M  END
$$$$
