
     RDKit          3D

 25 28  0  0  0  0  0  0  0  0999 V2000
  -19.6683   43.5248  -19.2849 C   0  0  0  0  0  0  0  0  0  0  0  0
  -18.9848   42.6487  -20.3562 C   0  0  0  0  0  0  0  0  0  0  0  0
  -17.8442   41.9822  -19.5707 C   0  0  0  0  0  0  0  0  0  0  0  0
  -17.0968   43.1148  -18.8499 C   0  0  0  0  0  0  0  0  0  0  0  0
  -16.6502   44.1572  -19.7881 C   0  0  0  0  0  0  0  0  0  0  0  0
  -15.6751   44.8952  -19.4765 O   0  0  0  0  0  0  0  0  0  0  0  0
  -17.3344   44.3132  -21.0403 C   0  0  0  0  0  0  0  0  0  0  0  0
  -18.3994   43.6282  -21.3053 C   0  0  0  0  0  0  0  0  0  0  0  0
  -19.1343   43.7744  -22.6119 C   0  0  0  0  0  0  0  0  0  0  0  0
  -19.0686   42.3834  -23.2063 C   0  0  0  0  0  0  0  0  0  0  0  0
  -19.9146   41.4257  -22.3925 C   0  0  0  0  0  0  0  0  0  0  0  0
  -19.9363   41.6848  -20.9445 C   0  0  0  0  0  0  0  0  0  0  0  0
  -19.7934   40.3696  -20.1522 C   0  0  0  0  0  0  0  0  0  0  0  0
  -20.6994   39.3299  -20.7453 C   0  0  0  0  0  0  0  0  0  0  0  0
  -20.2289   38.9286  -22.0992 C   0  0  0  0  0  0  0  0  0  0  0  0
  -21.4988   38.5446  -22.8808 C   0  0  0  0  0  0  0  0  0  0  0  0
  -19.5640   40.0537  -22.8531 C   0  0  0  0  0  0  0  0  0  0  0  0
  -18.1097   39.7274  -22.9503 C   0  0  0  0  0  0  0  0  0  0  0  0
  -18.1927   38.2064  -23.1133 C   0  0  0  0  0  0  0  0  0  0  0  0
  -19.2311   37.8253  -22.0260 C   0  0  1  0  0  0  0  0  0  0  0  0
  -18.4771   37.7783  -20.8641 O   0  0  0  0  0  0  0  0  0  0  0  0
  -19.7823   36.4951  -22.2942 C   0  0  0  0  0  0  0  0  0  0  0  0
  -20.3313   36.2817  -23.3602 O   0  0  0  0  0  0  0  0  0  0  0  0
  -19.7253   35.3616  -21.3565 C   0  0  0  0  0  0  0  0  0  0  0  0
  -20.2307   34.1660  -21.8445 O   0  0  0  0  0  0  0  0  0  0  0  0
  1  2  1  0
  2  3  1  0
  3  4  1  0
  4  5  1  0
  5  6  2  0
  5  7  1  0
  7  8  2  0
  8  9  1  0
  9 10  1  0
 10 11  1  0
 11 12  1  0
 12 13  1  0
 13 14  1  0
 14 15  1  0
 15 16  1  0
 15 17  1  0
 17 18  1  0
 18 19  1  0
 19 20  1  0
 20 21  1  1
 20 22  1  0
 22 23  2  0
 22 24  1  0
 24 25  1  0
  8  2  1  0
 17 11  1  0
 12  2  1  0
 20 15  1  0
M  END
$$$$
