
     RDKit          3D

 14 15  0  0  0  0  0  0  0  0999 V2000
  -12.2436    1.8052  -31.4914 C   0  0  0  0  0  0  0  0  0  0  0  0
  -13.7300    2.0449  -31.6035 C   0  0  0  0  0  0  0  0  0  0  0  0
  -14.2500    2.7008  -30.4226 N   0  0  0  0  0  0  0  0  0  0  0  0
  -14.4861    0.7885  -31.9516 C   0  0  0  0  0  0  0  0  0  0  0  0
  -13.9559    0.3010  -33.2858 C   0  0  0  0  0  0  0  0  0  0  0  0
  -14.7475   -0.9127  -33.7711 C   0  0  0  0  0  0  0  0  0  0  0  0
  -16.1808   -0.4717  -33.8947 C   0  0  0  0  0  0  0  0  0  0  0  0
  -16.7263   -0.1126  -32.5413 C   0  0  0  0  0  0  0  0  0  0  0  0
  -16.5118   -1.2438  -31.5571 C   0  0  0  0  0  0  0  0  0  0  0  0
  -15.0366   -1.5308  -31.4214 C   0  0  0  0  0  0  0  0  0  0  0  0
  -14.5465   -2.0081  -32.7720 C   0  0  0  0  0  0  0  0  0  0  0  0
  -14.2596   -0.3175  -30.9526 C   0  0  0  0  0  0  0  0  0  0  0  0
  -15.9523    1.0869  -31.9930 C   0  0  0  0  0  0  0  0  0  0  0  0
  -14.4004    0.7445  -31.8566 Cl  0  0  0  0  0  0  0  0  0  0  0  0
  1  2  1  0
  2  3  1  0
  2  4  1  0
  4  5  1  0
  5  6  1  0
  6  7  1  0
  7  8  1  0
  8  9  1  0
  9 10  1  0
 10 11  1  0
 10 12  1  0
  8 13  1  0
 12  4  1  0
 13  4  1  0
 11  6  1  0
M  END
$$$$
