
     RDKit          3D

 38 42  0  0  0  0  0  0  0  0999 V2000
  -22.1197   42.3360  -22.2581 C   0  0  0  0  0  0  0  0  0  0  0  0
  -20.6957   42.5576  -21.7798 C   0  0  1  0  0  0  0  0  0  0  0  0
  -20.3051   41.4025  -21.1148 O   0  0  0  0  0  0  0  0  0  0  0  0
  -19.1278   41.2761  -20.3339 C   0  0  0  0  0  0  0  0  0  0  0  0
  -18.2783   42.2667  -20.0122 C   0  0  0  0  0  0  0  0  0  0  0  0
  -17.1990   42.0221  -19.2681 C   0  0  0  0  0  0  0  0  0  0  0  0
  -16.1616   42.8881  -18.8016 N   0  0  0  0  0  0  0  0  0  0  0  0
  -15.3000   42.6879  -17.7922 C   0  0  0  0  0  0  0  0  0  0  0  0
  -14.4715   43.7452  -17.6653 N   0  0  0  0  0  0  0  0  0  0  0  0
  -14.7983   44.6437  -18.6037 C   0  0  0  0  0  0  0  0  0  0  0  0
  -14.3080   45.8798  -18.9390 C   0  0  0  0  0  0  0  0  0  0  0  0
  -14.8584   46.5876  -19.9738 C   0  0  0  0  0  0  0  0  0  0  0  0
  -15.9044   46.0598  -20.6789 C   0  0  0  0  0  0  0  0  0  0  0  0
  -16.5336   46.7976  -21.8123 C   0  0  0  0  0  0  0  0  0  0  0  0
  -17.0222   48.0977  -21.4500 N   0  0  0  0  0  0  0  0  0  0  0  0
  -17.8601   48.5866  -22.5263 C   0  0  0  0  0  0  0  0  0  0  0  0
  -19.3290   48.3095  -22.2895 C   0  0  0  0  0  0  0  0  0  0  0  0
  -19.8308   49.0745  -21.1638 N   0  0  0  0  0  0  0  0  0  0  0  0
  -20.4259   50.3191  -21.5661 C   0  0  0  0  0  0  0  0  0  0  0  0
  -18.7603   49.2448  -20.1957 C   0  0  0  0  0  0  0  0  0  0  0  0
  -17.7896   48.0815  -20.2421 C   0  0  0  0  0  0  0  0  0  0  0  0
  -16.3997   44.8226  -20.3479 C   0  0  0  0  0  0  0  0  0  0  0  0
  -15.8606   44.0967  -19.3123 C   0  0  0  0  0  0  0  0  0  0  0  0
  -17.3003   40.2758  -18.9425 S   0  0  0  0  0  0  0  0  0  0  0  0
  -18.8178   40.0147  -19.8539 C   0  0  0  0  0  0  0  0  0  0  0  0
  -19.5214   38.7362  -20.0193 C   0  0  0  0  0  0  0  0  0  0  0  0
  -18.8489   37.5102  -20.1218 N   0  0  0  0  0  0  0  0  0  0  0  0
  -20.7650   38.7790  -20.0663 O   0  0  0  0  0  0  0  0  0  0  0  0
  -19.8620   42.7869  -22.9938 C   0  0  0  0  0  0  0  0  0  0  0  0
  -19.5299   41.7826  -23.8744 C   0  0  0  0  0  0  0  0  0  0  0  0
  -18.7639   41.9949  -24.9975 C   0  0  0  0  0  0  0  0  0  0  0  0
  -18.3022   43.2434  -25.2718 C   0  0  0  0  0  0  0  0  0  0  0  0
  -18.6101   44.2640  -24.4227 C   0  0  0  0  0  0  0  0  0  0  0  0
  -19.3907   44.0561  -23.2753 C   0  0  0  0  0  0  0  0  0  0  0  0
  -19.6793   45.1896  -22.4006 C   0  0  0  0  0  0  0  0  0  0  0  0
  -19.1571   45.0877  -21.1267 F   0  0  0  0  0  0  0  0  0  0  0  0
  -19.3260   46.4079  -22.9990 F   0  0  0  0  0  0  0  0  0  0  0  0
  -21.0514   45.2806  -22.2241 F   0  0  0  0  0  0  0  0  0  0  0  0
  2  1  1  6
  2  3  1  0
  3  4  1  0
  4  5  1  0
  5  6  2  0
  6  7  1  0
  7  8  1  0
  8  9  2  0
  9 10  1  0
 10 11  2  0
 11 12  1  0
 12 13  2  0
 13 14  1  0
 14 15  1  0
 15 16  1  0
 16 17  1  0
 17 18  1  0
 18 19  1  0
 18 20  1  0
 20 21  1  0
 13 22  1  0
 22 23  2  0
  6 24  1  0
 24 25  1  0
 25 26  1  0
 26 27  1  0
 26 28  2  0
  2 29  1  0
 29 30  2  0
 30 31  1  0
 31 32  2  0
 32 33  1  0
 33 34  2  0
 34 35  1  0
 35 36  1  0
 35 37  1  0
 35 38  1  0
 25  4  2  0
 34 29  1  0
 23  7  1  0
 23 10  1  0
 21 15  1  0
M  END
$$$$
