
     RDKit          3D

 44 49  0  0  0  0  0  0  0  0999 V2000
  -20.8480   23.1633  -35.6216 C   0  0  0  0  0  0  0  0  0  0  0  0
  -22.2737   23.5323  -35.9994 C   0  0  2  0  0  0  0  0  0  0  0  0
  -23.2221   22.7880  -35.2146 N   0  0  0  0  0  0  0  0  0  0  0  0
  -23.2642   21.3524  -35.2804 C   0  0  0  0  0  0  0  0  0  0  0  0
  -23.4764   20.8105  -36.4025 O   0  0  0  0  0  0  0  0  0  0  0  0
  -23.0615   20.5635  -34.0433 C   0  0  0  0  0  0  0  0  0  0  0  0
  -23.5919   19.1684  -34.1140 C   0  0  0  0  0  0  0  0  0  0  0  0
  -21.6732   20.4910  -33.8570 F   0  0  0  0  0  0  0  0  0  0  0  0
  -23.5411   21.2569  -32.9523 F   0  0  0  0  0  0  0  0  0  0  0  0
  -22.5330   23.3139  -37.4597 C   0  0  2  0  0  0  0  0  0  0  0  0
  -21.7878   24.1505  -38.2910 O   0  0  0  0  0  0  0  0  0  0  0  0
  -21.1513   23.8543  -39.4566 C   0  0  0  0  0  0  0  0  0  0  0  0
  -19.9284   23.1746  -39.3663 C   0  0  0  0  0  0  0  0  0  0  0  0
  -19.2148   22.8344  -40.4944 C   0  0  0  0  0  0  0  0  0  0  0  0
  -19.6674   23.1440  -41.7704 C   0  0  0  0  0  0  0  0  0  0  0  0
  -20.8693   23.8127  -41.8690 C   0  0  0  0  0  0  0  0  0  0  0  0
  -21.0642   23.9827  -43.2209 C   0  0  0  0  0  0  0  0  0  0  0  0
  -20.0333   23.4439  -43.8886 N   0  0  0  0  0  0  0  0  0  0  0  0
  -19.1632   22.9220  -43.0016 N   0  0  0  0  0  0  0  0  0  0  0  0
  -17.9449   22.2683  -43.3465 C   0  0  0  0  0  0  0  0  0  0  0  0
  -17.9001   20.8702  -43.4536 C   0  0  0  0  0  0  0  0  0  0  0  0
  -16.7258   20.2314  -43.7817 C   0  0  0  0  0  0  0  0  0  0  0  0
  -15.5629   20.9261  -44.0147 C   0  0  0  0  0  0  0  0  0  0  0  0
  -15.5975   22.2961  -43.9123 C   0  0  0  0  0  0  0  0  0  0  0  0
  -14.4202   23.1054  -44.1420 C   0  0  0  0  0  0  0  0  0  0  0  0
  -14.4686   24.3360  -43.8586 O   0  0  0  0  0  0  0  0  0  0  0  0
  -13.2507   22.5191  -44.6702 N   0  0  0  0  0  0  0  0  0  0  0  0
  -12.0325   23.3303  -44.6994 C   0  0  2  0  0  0  0  0  0  0  0  0
  -12.1452   24.3496  -45.8201 C   0  0  0  0  0  0  0  0  0  0  0  0
  -11.5712   23.5871  -46.9892 C   0  0  0  0  0  0  0  0  0  0  0  0
  -10.7467   22.6123  -46.5192 O   0  0  0  0  0  0  0  0  0  0  0  0
  -10.8832   22.4914  -45.1675 C   0  0  0  0  0  0  0  0  0  0  0  0
  -16.7785   22.9477  -43.5824 C   0  0  0  0  0  0  0  0  0  0  0  0
  -21.5836   24.1532  -40.7266 C   0  0  0  0  0  0  0  0  0  0  0  0
  -23.9715   23.4256  -37.7419 C   0  0  0  0  0  0  0  0  0  0  0  0
  -24.7963   22.3381  -37.9170 C   0  0  0  0  0  0  0  0  0  0  0  0
  -26.1459   22.4685  -38.1849 C   0  0  0  0  0  0  0  0  0  0  0  0
  -26.6811   23.7468  -38.2787 C   0  0  0  0  0  0  0  0  0  0  0  0
  -25.8847   24.8488  -38.1090 C   0  0  0  0  0  0  0  0  0  0  0  0
  -24.5520   24.6937  -37.8450 C   0  0  0  0  0  0  0  0  0  0  0  0
  -26.4459   26.1063  -38.2082 O   0  0  0  0  0  0  0  0  0  0  0  0
  -27.7956   26.3813  -38.4304 C   0  0  0  0  0  0  0  0  0  0  0  0
  -28.6800   25.1676  -38.2852 C   0  0  0  0  0  0  0  0  0  0  0  0
  -28.0268   23.9612  -38.5449 O   0  0  0  0  0  0  0  0  0  0  0  0
  2  1  1  1
  2  3  1  0
  3  4  1  0
  4  5  2  0
  4  6  1  0
  6  7  1  0
  6  8  1  0
  6  9  1  0
  2 10  1  0
 10 11  1  6
 11 12  1  0
 12 13  2  0
 13 14  1  0
 14 15  2  0
 15 16  1  0
 16 17  1  0
 17 18  2  0
 18 19  1  0
 19 20  1  0
 20 21  2  0
 21 22  1  0
 22 23  2  0
 23 24  1  0
 24 25  1  0
 25 26  2  0
 25 27  1  0
 28 27  1  6
 28 29  1  0
 29 30  1  0
 30 31  1  0
 31 32  1  0
 24 33  2  0
 16 34  2  0
 10 35  1  0
 35 36  2  0
 36 37  1  0
 37 38  2  0
 38 39  1  0
 39 40  2  0
 39 41  1  0
 41 42  1  0
 42 43  1  0
 43 44  1  0
 34 12  1  0
 40 35  1  0
 19 15  1  0
 33 20  1  0
 44 38  1  0
 32 28  1  0
M  END
$$$$
