
     RDKit          3D

 32 35  0  0  0  0  0  0  0  0999 V2000
  -13.9722    3.1099  -30.4556 C   0  0  0  0  0  0  0  0  0  0  0  0
  -13.2478    2.4015  -31.5604 C   0  0  0  0  0  0  0  0  0  0  0  0
  -11.9400    2.7989  -31.8198 C   0  0  0  0  0  0  0  0  0  0  0  0
  -11.2305    2.1903  -32.8261 C   0  0  0  0  0  0  0  0  0  0  0  0
  -11.8183    1.1938  -33.5653 C   0  0  0  0  0  0  0  0  0  0  0  0
  -13.1127    0.7995  -33.3084 C   0  0  0  0  0  0  0  0  0  0  0  0
  -13.8495    1.4150  -32.2825 C   0  0  0  0  0  0  0  0  0  0  0  0
  -15.2123    0.9970  -32.0030 C   0  0  0  0  0  0  0  0  0  0  0  0
  -15.3447   -0.1309  -31.4639 O   0  0  0  0  0  0  0  0  0  0  0  0
  -16.3433    1.8130  -32.3150 N   0  0  0  0  0  0  0  0  0  0  0  0
  -17.6117    1.3416  -31.9145 C   0  0  0  0  0  0  0  0  0  0  0  0
  -17.8196    0.0405  -31.5565 C   0  0  0  0  0  0  0  0  0  0  0  0
  -19.0871   -0.3658  -31.1486 C   0  0  0  0  0  0  0  0  0  0  0  0
  -20.1738    0.4895  -31.0813 C   0  0  0  0  0  0  0  0  0  0  0  0
  -21.4241    0.0387  -30.5823 C   0  0  0  0  0  0  0  0  0  0  0  0
  -21.2389   -0.2099  -29.2517 O   0  0  0  0  0  0  0  0  0  0  0  0
  -22.7261   -0.2309  -30.9006 N   0  0  0  0  0  0  0  0  0  0  0  0
  -23.6035   -0.3766  -29.6570 C   0  0  0  0  0  0  0  0  0  0  0  0
  -24.9587    0.1860  -29.9076 C   0  0  0  0  0  0  0  0  0  0  0  0
  -25.8760   -0.8623  -30.5013 C   0  0  0  0  0  0  0  0  0  0  0  0
  -25.7896   -0.9653  -31.9495 C   0  0  0  0  0  0  0  0  0  0  0  0
  -26.8823   -0.3478  -32.6728 N   0  0  0  0  0  0  0  0  0  0  0  0
  -26.8280   -0.4019  -34.0747 C   0  0  0  0  0  0  0  0  0  0  0  0
  -27.5082    0.7443  -32.0369 C   0  0  0  0  0  0  0  0  0  0  0  0
  -24.5558   -0.5613  -32.6418 C   0  0  0  0  0  0  0  0  0  0  0  0
  -24.8240   -0.5106  -34.0222 C   0  0  0  0  0  0  0  0  0  0  0  0
  -23.8413   -0.1911  -34.9125 C   0  0  0  0  0  0  0  0  0  0  0  0
  -22.5718    0.0854  -34.4633 C   0  0  0  0  0  0  0  0  0  0  0  0
  -22.2727    0.0449  -33.1177 C   0  0  0  0  0  0  0  0  0  0  0  0
  -23.2543   -0.2733  -32.2069 C   0  0  0  0  0  0  0  0  0  0  0  0
  -19.9290    1.8144  -31.4541 C   0  0  0  0  0  0  0  0  0  0  0  0
  -18.6918    2.2243  -31.8562 C   0  0  0  0  0  0  0  0  0  0  0  0
  1  2  1  0
  2  3  2  0
  3  4  1  0
  4  5  2  0
  5  6  1  0
  6  7  2  0
  7  8  1  0
  8  9  2  0
  8 10  1  0
 10 11  1  0
 11 12  2  0
 12 13  1  0
 13 14  2  0
 14 15  1  0
 15 16  2  0
 15 17  1  0
 17 18  1  0
 18 19  1  0
 19 20  1  0
 20 21  1  0
 21 22  1  0
 22 23  1  0
 22 24  1  0
 21 25  1  0
 25 26  2  0
 26 27  1  0
 27 28  2  0
 28 29  1  0
 29 30  2  0
 14 31  1  0
 31 32  2  0
  7  2  1  0
 32 11  1  0
 30 17  1  0
 30 25  1  0
M  END
$$$$
