
     RDKit          3D

 15 15  0  0  0  0  0  0  0  0999 V2000
  -21.5405   16.5866  -31.8108 C   0  0  0  0  0  0  0  0  0  0  0  0
  -20.0673   16.9029  -31.7016 C   0  0  0  0  0  0  0  0  0  0  0  0
  -19.6554   17.9452  -32.7163 C   0  0  0  0  0  0  0  0  0  0  0  0
  -19.3167   15.6969  -31.9804 N   0  0  0  0  0  0  0  0  0  0  0  0
  -19.5693   14.6515  -31.0329 C   0  0  0  0  0  0  0  0  0  0  0  0
  -18.4504   14.6684  -30.0110 C   0  0  0  0  0  0  0  0  0  0  0  0
  -18.9361   15.3367  -28.8919 O   0  0  0  0  0  0  0  0  0  0  0  0
  -17.2206   15.3746  -30.5435 C   0  0  0  0  0  0  0  0  0  0  0  0
  -16.2353   15.3429  -29.5278 O   0  0  0  0  0  0  0  0  0  0  0  0
  -15.2563   14.3693  -29.4752 C   0  0  0  0  0  0  0  0  0  0  0  0
  -15.2234   13.3788  -28.5100 C   0  0  0  0  0  0  0  0  0  0  0  0
  -14.2438   12.4185  -28.4714 C   0  0  0  0  0  0  0  0  0  0  0  0
  -13.2643   12.4595  -29.4399 C   0  0  0  0  0  0  0  0  0  0  0  0
  -13.2515   13.4243  -30.4225 C   0  0  0  0  0  0  0  0  0  0  0  0
  -14.2579   14.3698  -30.4209 C   0  0  0  0  0  0  0  0  0  0  0  0
  1  2  1  0
  2  3  1  0
  2  4  1  0
  4  5  1  0
  5  6  1  0
  6  7  1  0
  6  8  1  0
  8  9  1  0
  9 10  1  0
 10 11  2  0
 11 12  1  0
 12 13  2  0
 13 14  1  0
 14 15  2  0
 15 10  1  0
M  END
$$$$
