
     RDKit          3D

 32 34  0  0  0  0  0  0  0  0999 V2000
  -13.4326   13.1466  -27.1188 O   0  0  0  0  0  0  0  0  0  0  0  0
  -14.1557   12.3493  -27.7525 C   0  0  0  0  0  0  0  0  0  0  0  0
  -15.5312   12.7233  -28.1259 C   0  0  0  0  0  0  0  0  0  0  0  0
  -15.4324   14.0934  -28.8578 C   0  0  0  0  0  0  0  0  0  0  0  0
  -16.7794   14.6339  -29.1139 C   0  0  0  0  0  0  0  0  0  0  0  0
  -16.9585   15.8865  -29.8438 C   0  0  0  0  0  0  0  0  0  0  0  0
  -18.2608   16.4108  -30.2574 C   0  0  0  0  0  0  0  0  0  0  0  0
  -18.3809   17.8779  -30.4305 C   0  0  0  0  0  0  0  0  0  0  0  0
  -19.5082   18.4315  -29.6807 N   0  0  0  0  0  0  0  0  0  0  0  0
  -20.8458   18.4621  -30.1495 C   0  0  0  0  0  0  0  0  0  0  0  0
  -21.2466   17.4928  -30.8435 O   0  0  0  0  0  0  0  0  0  0  0  0
  -21.7659   19.5725  -29.8556 C   0  0  0  0  0  0  0  0  0  0  0  0
  -22.9717   19.7445  -30.4586 C   0  0  0  0  0  0  0  0  0  0  0  0
  -23.7163   20.8253  -30.0800 N   0  0  0  0  0  0  0  0  0  0  0  0
  -23.3216   21.6978  -29.1667 C   0  0  0  0  0  0  0  0  0  0  0  0
  -24.1038   22.8382  -28.7652 N   0  0  0  0  0  0  0  0  0  0  0  0
  -25.4359   22.8857  -29.2263 C   0  0  0  0  0  0  0  0  0  0  0  0
  -26.3609   21.9878  -28.7993 C   0  0  0  0  0  0  0  0  0  0  0  0
  -27.6647   22.0318  -29.2706 C   0  0  0  0  0  0  0  0  0  0  0  0
  -28.0732   22.9801  -30.1831 C   0  0  0  0  0  0  0  0  0  0  0  0
  -27.1253   23.8793  -30.6027 C   0  0  0  0  0  0  0  0  0  0  0  0
  -25.8332   23.8432  -30.1422 C   0  0  0  0  0  0  0  0  0  0  0  0
  -23.4649   23.7962  -27.9506 C   0  0  0  0  0  0  0  0  0  0  0  0
  -23.7722   23.9807  -26.6207 C   0  0  0  0  0  0  0  0  0  0  0  0
  -23.0906   24.9693  -25.9193 C   0  0  0  0  0  0  0  0  0  0  0  0
  -22.1252   25.7614  -26.5118 C   0  0  0  0  0  0  0  0  0  0  0  0
  -21.8259   25.5701  -27.8348 C   0  0  0  0  0  0  0  0  0  0  0  0
  -22.4968   24.5991  -28.5209 C   0  0  0  0  0  0  0  0  0  0  0  0
  -22.1332   21.5094  -28.5869 N   0  0  0  0  0  0  0  0  0  0  0  0
  -21.3389   20.4812  -28.8948 C   0  0  0  0  0  0  0  0  0  0  0  0
  -13.6288   11.0783  -28.1056 N   0  0  0  0  0  0  0  0  0  0  0  0
  -12.3460   10.7615  -27.8478 O   0  0  0  0  0  0  0  0  0  0  0  0
  1  2  2  0
  2  3  1  0
  3  4  1  0
  4  5  1  0
  5  6  1  0
  6  7  1  0
  7  8  1  0
  8  9  1  0
  9 10  1  0
 10 11  2  0
 10 12  1  0
 12 13  2  0
 13 14  1  0
 14 15  2  0
 15 16  1  0
 16 17  1  0
 17 18  2  0
 18 19  1  0
 19 20  2  0
 20 21  1  0
 21 22  2  0
 16 23  1  0
 23 24  2  0
 24 25  1  0
 25 26  2  0
 26 27  1  0
 27 28  2  0
 15 29  1  0
 29 30  2  0
  2 31  1  0
 31 32  1  0
 30 12  1  0
 22 17  1  0
 28 23  1  0
M  END
$$$$
