
     RDKit          3D

 14 15  0  0  0  0  0  0  0  0999 V2000
  -15.4171   13.1784  -28.4506 Cl  0  0  0  0  0 15  0  0  0  0  0  0
  -18.6194   14.3147  -29.5697 C   0  0  0  0  0  0  0  0  0  0  0  0
  -18.0153   13.2199  -30.1348 C   0  0  0  0  0  0  0  0  0  0  0  0
  -16.8124   12.7728  -29.7322 C   0  0  0  0  0  0  0  0  0  0  0  0
  -16.0526   13.3929  -28.6823 C   0  0  0  0  0  0  0  0  0  0  0  0
  -16.6886   14.4643  -28.1588 C   0  0  0  0  0  0  0  0  0  0  0  0
  -17.9137   14.9399  -28.5511 C   0  0  0  0  0  0  0  0  0  0  0  0
  -15.4320   15.2144  -26.6652 I   0  0  0  0  0  2  0  0  0  0  0  0
  -14.1345   13.6287  -27.2040 C   0  0  0  0  0  0  0  0  0  0  0  0
  -12.9034   13.3105  -26.6692 C   0  0  0  0  0  0  0  0  0  0  0  0
  -12.2259   12.2431  -27.1616 C   0  0  0  0  0  0  0  0  0  0  0  0
  -12.8074   11.5373  -28.1690 C   0  0  0  0  0  0  0  0  0  0  0  0
  -14.0148   11.8596  -28.6845 C   0  0  0  0  0  0  0  0  0  0  0  0
  -14.7828   12.9790  -28.2061 C   0  0  0  0  0  0  0  0  0  0  0  0
  2  3  2  0
  3  4  1  0
  4  5  2  0
  5  6  1  0
  6  7  2  0
  6  8  1  0
  8  9  1  0
  9 10  2  0
 10 11  1  0
 11 12  2  0
 12 13  1  0
 13 14  2  0
  7  2  1  0
 14  9  1  0
 14  5  1  0
M  CHG  2   1  -1   8   1
M  END
$$$$
