
     RDKit          3D

 38 42  0  0  0  0  0  0  0  0999 V2000
  -22.1046   37.2533  -22.4699 C   0  0  0  0  0  0  0  0  0  0  0  0
  -22.1582   38.5834  -23.2385 C   0  0  0  0  0  0  0  0  0  0  0  0
  -20.7579   38.7650  -23.8146 C   0  0  2  0  0  0  0  0  0  0  0  0
  -20.1158   37.4075  -23.6716 C   0  0  0  0  0  0  0  0  0  0  0  0
  -20.0598   36.5864  -24.6367 O   0  0  0  0  0  0  0  0  0  0  0  0
  -19.5748   37.0858  -22.4033 N   0  0  0  0  0  0  0  0  0  0  0  0
  -19.3664   35.6993  -22.0133 C   0  0  0  0  0  0  0  0  0  0  0  0
  -19.2286   38.1242  -21.5046 C   0  0  0  0  0  0  0  0  0  0  0  0
  -18.6785   37.8714  -20.2509 C   0  0  0  0  0  0  0  0  0  0  0  0
  -18.3448   38.8774  -19.4194 N   0  0  0  0  0  0  0  0  0  0  0  0
  -18.5410   40.1417  -19.7950 C   0  0  0  0  0  0  0  0  0  0  0  0
  -18.2184   41.2470  -18.9942 N   0  0  0  0  0  0  0  0  0  0  0  0
  -18.1507   42.5835  -19.4283 C   0  0  0  0  0  0  0  0  0  0  0  0
  -18.9912   43.0826  -20.3703 C   0  0  0  0  0  0  0  0  0  0  0  0
  -18.8086   44.4236  -20.7776 C   0  0  0  0  0  0  0  0  0  0  0  0
  -17.8450   45.2221  -20.2776 C   0  0  0  0  0  0  0  0  0  0  0  0
  -17.6709   46.5943  -20.7365 C   0  0  0  0  0  0  0  0  0  0  0  0
  -16.5971   46.9616  -21.3210 O   0  0  0  0  0  0  0  0  0  0  0  0
  -18.6354   47.6254  -20.5908 N   0  0  0  0  0  0  0  0  0  0  0  0
  -18.3349   49.0204  -20.8442 C   0  0  0  0  0  0  0  0  0  0  0  0
  -18.0132   49.1530  -22.3353 C   0  0  0  0  0  0  0  0  0  0  0  0
  -19.2404   49.6014  -23.0603 C   0  0  0  0  0  0  0  0  0  0  0  0
  -19.5472   50.9668  -22.6594 N   0  0  0  0  0  0  0  0  0  0  0  0
  -20.6634   51.4607  -23.4179 C   0  0  0  0  0  0  0  0  0  0  0  0
  -19.6685   51.1296  -21.2405 C   0  0  0  0  0  0  0  0  0  0  0  0
  -19.4956   49.8543  -20.4606 C   0  0  0  0  0  0  0  0  0  0  0  0
  -17.0072   44.7058  -19.3302 C   0  0  0  0  0  0  0  0  0  0  0  0
  -17.1018   43.3804  -18.8523 C   0  0  0  0  0  0  0  0  0  0  0  0
  -16.2947   42.9344  -17.9595 O   0  0  0  0  0  0  0  0  0  0  0  0
  -15.4949   42.4817  -17.0729 C   0  0  0  0  0  0  0  0  0  0  0  0
  -19.0833   40.4148  -21.0234 N   0  0  0  0  0  0  0  0  0  0  0  0
  -19.4317   39.4253  -21.8860 C   0  0  0  0  0  0  0  0  0  0  0  0
  -19.9864   39.7722  -23.1658 N   0  0  0  0  0  0  0  0  0  0  0  0
  -19.7163   41.0869  -23.6724 C   0  0  0  0  0  0  0  0  0  0  0  0
  -20.8696   42.0475  -23.5786 C   0  0  0  0  0  0  0  0  0  0  0  0
  -21.6108   41.9401  -24.8840 C   0  0  0  0  0  0  0  0  0  0  0  0
  -20.6028   41.4646  -25.9070 C   0  0  0  0  0  0  0  0  0  0  0  0
  -19.3517   41.0793  -25.1397 C   0  0  0  0  0  0  0  0  0  0  0  0
  1  2  1  0
  3  2  1  1
  3  4  1  0
  4  5  2  0
  4  6  1  0
  6  7  1  0
  6  8  1  0
  8  9  2  0
  9 10  1  0
 10 11  2  0
 11 12  1  0
 12 13  1  0
 13 14  2  0
 14 15  1  0
 15 16  2  0
 16 17  1  0
 17 18  2  0
 17 19  1  0
 19 20  1  0
 20 21  1  0
 21 22  1  0
 22 23  1  0
 23 24  1  0
 23 25  1  0
 25 26  1  0
 16 27  1  0
 27 28  2  0
 28 29  1  0
 29 30  1  0
 11 31  1  0
 31 32  2  0
 32 33  1  0
 33 34  1  0
 34 35  1  0
 35 36  1  0
 36 37  1  0
 37 38  1  0
 33  3  1  0
 38 34  1  0
 32  8  1  0
 28 13  1  0
 26 20  1  0
M  END
$$$$
