
     RDKit          3D

 31 34  0  0  0  0  0  0  0  0999 V2000
  -17.5883   38.9019  -19.4316 O   0  0  0  0  0  0  0  0  0  0  0  0
  -17.8898   39.9627  -20.0108 C   0  0  0  0  0  0  0  0  0  0  0  0
  -17.3685   41.2019  -19.6317 C   0  0  0  0  0  0  0  0  0  0  0  0
  -17.7374   42.3413  -20.3083 C   0  0  0  0  0  0  0  0  0  0  0  0
  -17.1996   43.6434  -19.9221 C   0  0  0  0  0  0  0  0  0  0  0  0
  -16.0253   43.6936  -19.1736 C   0  0  0  0  0  0  0  0  0  0  0  0
  -15.4651   44.8894  -18.7767 C   0  0  0  0  0  0  0  0  0  0  0  0
  -16.0501   46.0925  -19.1079 C   0  0  0  0  0  0  0  0  0  0  0  0
  -15.4928   47.3103  -18.7121 O   0  0  0  0  0  0  0  0  0  0  0  0
  -17.2110   46.0600  -19.8473 C   0  0  0  0  0  0  0  0  0  0  0  0
  -17.7776   44.8434  -20.2489 C   0  0  0  0  0  0  0  0  0  0  0  0
  -18.5924   42.2602  -21.3252 O   0  0  0  0  0  0  0  0  0  0  0  0
  -19.1019   41.1340  -21.7129 C   0  0  0  0  0  0  0  0  0  0  0  0
  -19.9896   41.1285  -22.7846 C   0  0  0  0  0  0  0  0  0  0  0  0
  -20.5615   39.9522  -23.2376 C   0  0  0  0  0  0  0  0  0  0  0  0
  -21.4215   40.0180  -24.2904 O   0  0  0  0  0  0  0  0  0  0  0  0
  -22.7836   40.2261  -24.3121 C   0  0  2  0  0  0  0  0  0  0  0  0
  -23.4883   39.0436  -24.1417 O   0  0  0  0  0  0  0  0  0  0  0  0
  -24.8316   39.2303  -23.9132 C   0  0  2  0  0  0  0  0  0  0  0  0
  -25.5088   37.8773  -23.9875 C   0  0  0  0  0  0  0  0  0  0  0  0
  -24.9435   37.0423  -24.9272 O   0  0  0  0  0  0  0  0  0  0  0  0
  -25.5167   40.1612  -24.8508 C   0  0  1  0  0  0  0  0  0  0  0  0
  -26.6150   40.7152  -24.1832 O   0  0  0  0  0  0  0  0  0  0  0  0
  -24.6740   41.3000  -25.3419 C   0  0  2  0  0  0  0  0  0  0  0  0
  -25.2574   41.8702  -26.4645 O   0  0  0  0  0  0  0  0  0  0  0  0
  -23.2757   40.7922  -25.6504 C   0  0  1  0  0  0  0  0  0  0  0  0
  -22.4463   41.8083  -26.0963 O   0  0  0  0  0  0  0  0  0  0  0  0
  -20.2193   38.7875  -22.5882 C   0  0  0  0  0  0  0  0  0  0  0  0
  -19.3395   38.7925  -21.5259 C   0  0  0  0  0  0  0  0  0  0  0  0
  -18.9872   37.6176  -20.8622 O   0  0  0  0  0  0  0  0  0  0  0  0
  -18.7677   39.9616  -21.0716 C   0  0  0  0  0  0  0  0  0  0  0  0
  1  2  2  0
  2  3  1  0
  3  4  2  0
  4  5  1  0
  5  6  2  0
  6  7  1  0
  7  8  2  0
  8  9  1  0
  8 10  1  0
 10 11  2  0
  4 12  1  0
 12 13  1  0
 13 14  2  0
 14 15  1  0
 15 16  1  0
 17 16  1  6
 17 18  1  0
 18 19  1  0
 19 20  1  6
 20 21  1  0
 19 22  1  0
 22 23  1  1
 22 24  1  0
 24 25  1  6
 24 26  1  0
 26 27  1  1
 15 28  2  0
 28 29  1  0
 29 30  1  0
 29 31  2  0
 31  2  1  0
 11  5  1  0
 31 13  1  0
 26 17  1  0
M  END
$$$$
