
     RDKit          3D

 33 36  0  0  0  0  0  0  0  0999 V2000
  -12.5533    2.5392  -34.0483 C   0  0  0  0  0  0  0  0  0  0  0  0
  -12.2982    1.4340  -34.7363 C   0  0  0  0  0  0  0  0  0  0  0  0
  -13.3973    0.5036  -35.0852 C   0  0  0  0  0  0  0  0  0  0  0  0
  -13.9938   -0.2196  -34.0485 N   0  0  0  0  0  0  0  0  0  0  0  0
  -15.2901    0.0747  -33.6184 C   0  0  0  0  0  0  0  0  0  0  0  0
  -16.3298   -0.8598  -34.1082 C   0  0  2  0  0  0  0  0  0  0  0  0
  -17.6824   -0.6316  -33.6238 C   0  0  0  0  0  0  0  0  0  0  0  0
  -17.9334   -1.0063  -32.4221 O   0  0  0  0  0  0  0  0  0  0  0  0
  -18.7471   -0.0451  -34.3277 N   0  0  0  0  0  0  0  0  0  0  0  0
  -19.3997    1.1528  -33.7685 C   0  0  0  0  0  0  0  0  0  0  0  0
  -19.5614    1.0664  -32.2825 C   0  0  0  0  0  0  0  0  0  0  0  0
  -20.5493    2.1508  -31.8791 C   0  0  0  0  0  0  0  0  0  0  0  0
  -20.7160    2.2098  -30.4535 N   0  0  0  0  0  0  0  0  0  0  0  0
  -21.5756    3.2444  -29.9836 C   0  0  0  0  0  0  0  0  0  0  0  0
  -20.9937    0.8981  -29.9435 C   0  0  0  0  0  0  0  0  0  0  0  0
  -19.2646   -0.5232  -35.5555 C   0  0  0  0  0  0  0  0  0  0  0  0
  -20.4863   -0.6097  -35.8275 O   0  0  0  0  0  0  0  0  0  0  0  0
  -18.3791   -0.9497  -36.5889 N   0  0  0  0  0  0  0  0  0  0  0  0
  -18.4508   -2.3433  -37.0347 C   0  0  0  0  0  0  0  0  0  0  0  0
  -19.5934   -2.4993  -38.0326 C   0  0  0  0  0  0  0  0  0  0  0  0
  -15.8705   -2.2865  -33.7374 C   0  0  0  0  0  0  0  0  0  0  0  0
  -14.5744   -2.5079  -34.4802 C   0  0  0  0  0  0  0  0  0  0  0  0
  -14.1528   -3.9122  -34.4547 C   0  0  0  0  0  0  0  0  0  0  0  0
  -15.0431   -4.9733  -34.5661 C   0  0  0  0  0  0  0  0  0  0  0  0
  -14.5506   -6.2664  -34.5392 C   0  0  0  0  0  0  0  0  0  0  0  0
  -13.2022   -6.5235  -34.4049 C   0  0  0  0  0  0  0  0  0  0  0  0
  -12.3057   -5.4755  -34.2932 C   0  0  0  0  0  0  0  0  0  0  0  0
  -10.9873   -5.3361  -34.1562 N   0  0  0  0  0  0  0  0  0  0  0  0
  -10.6694   -4.0041  -34.0998 C   0  0  0  0  0  0  0  0  0  0  0  0
  -11.8366   -3.3017  -34.2062 C   0  0  0  0  0  0  0  0  0  0  0  0
  -12.8371   -4.2090  -34.3245 C   0  0  0  0  0  0  0  0  0  0  0  0
  -12.1428   -1.8374  -34.2051 C   0  0  0  0  0  0  0  0  0  0  0  0
  -13.5554   -1.5668  -33.8427 C   0  0  1  0  0  0  0  0  0  0  0  0
  1  2  2  0
  2  3  1  0
  3  4  1  0
  4  5  1  0
  5  6  1  0
  6  7  1  1
  7  8  2  0
  7  9  1  0
  9 10  1  0
 10 11  1  0
 11 12  1  0
 12 13  1  0
 13 14  1  0
 13 15  1  0
  9 16  1  0
 16 17  2  0
 16 18  1  0
 18 19  1  0
 19 20  1  0
  6 21  1  0
 21 22  1  0
 22 23  1  0
 23 24  2  0
 24 25  1  0
 25 26  2  0
 26 27  1  0
 27 28  1  0
 28 29  1  0
 29 30  2  0
 30 31  1  0
 30 32  1  0
 33 32  1  6
 33  4  1  0
 33 22  1  0
 31 23  1  0
 31 27  2  0
M  END
$$$$
