
     RDKit          3D

 35 39  0  0  0  0  0  0  0  0999 V2000
  -19.5014   34.9020  -20.9779 C   0  0  0  0  0  0  0  0  0  0  0  0
  -19.3203   36.1734  -21.6467 C   0  0  0  0  0  0  0  0  0  0  0  0
  -19.1538   37.2399  -22.2125 C   0  0  0  0  0  0  0  0  0  0  0  0
  -18.9299   38.5113  -22.8936 C   0  0  0  0  0  0  0  0  0  0  0  0
  -19.8866   39.5194  -22.5655 N   0  0  0  0  0  0  0  0  0  0  0  0
  -20.9839   39.8798  -23.2346 C   0  0  0  0  0  0  0  0  0  0  0  0
  -21.5374   39.4247  -24.4624 N   0  0  0  0  0  0  0  0  0  0  0  0
  -21.3152   39.9327  -25.7665 C   0  0  0  0  0  0  0  0  0  0  0  0
  -20.4979   38.8914  -26.5334 C   0  0  0  0  0  0  0  0  0  0  0  0
  -21.1900   37.5444  -26.4660 C   0  0  0  0  0  0  0  0  0  0  0  0
  -21.6228   37.1348  -25.1012 C   0  0  1  0  0  0  0  0  0  0  0  0
  -20.5547   36.7155  -24.2278 N   0  0  0  0  0  0  0  0  0  0  0  0
  -22.4317   38.2283  -24.4387 C   0  0  0  0  0  0  0  0  0  0  0  0
  -21.5480   40.8866  -22.4842 N   0  0  0  0  0  0  0  0  0  0  0  0
  -20.8283   41.1386  -21.3952 C   0  0  0  0  0  0  0  0  0  0  0  0
  -19.7636   40.2716  -21.4351 C   0  0  0  0  0  0  0  0  0  0  0  0
  -18.8608   40.3526  -20.3984 C   0  0  0  0  0  0  0  0  0  0  0  0
  -17.8699   39.5839  -20.3859 O   0  0  0  0  0  0  0  0  0  0  0  0
  -19.0112   41.2401  -19.3909 N   0  0  0  0  0  0  0  0  0  0  0  0
  -18.0390   41.3394  -18.2854 C   0  0  0  0  0  0  0  0  0  0  0  0
  -16.9912   42.3467  -18.6837 C   0  0  0  0  0  0  0  0  0  0  0  0
  -15.9235   42.6179  -17.9199 N   0  0  0  0  0  0  0  0  0  0  0  0
  -14.9848   43.5134  -18.2358 C   0  0  0  0  0  0  0  0  0  0  0  0
  -13.8168   43.8080  -17.3663 C   0  0  0  0  0  0  0  0  0  0  0  0
  -15.1144   44.2028  -19.4171 C   0  0  0  0  0  0  0  0  0  0  0  0
  -14.1549   45.1336  -19.7621 C   0  0  0  0  0  0  0  0  0  0  0  0
  -14.2857   45.8306  -20.9531 C   0  0  0  0  0  0  0  0  0  0  0  0
  -15.3564   45.5808  -21.7525 C   0  0  0  0  0  0  0  0  0  0  0  0
  -16.3167   44.6548  -21.4162 C   0  0  0  0  0  0  0  0  0  0  0  0
  -16.2132   43.9470  -20.2394 C   0  0  0  0  0  0  0  0  0  0  0  0
  -17.1036   43.0300  -19.8363 N   0  0  0  0  0  0  0  0  0  0  0  0
  -20.0536   42.0801  -19.3634 C   0  0  0  0  0  0  0  0  0  0  0  0
  -20.1704   42.9046  -18.4035 O   0  0  0  0  0  0  0  0  0  0  0  0
  -20.9486   42.0217  -20.3610 N   0  0  0  0  0  0  0  0  0  0  0  0
  -22.0618   42.9251  -20.3239 C   0  0  0  0  0  0  0  0  0  0  0  0
  1  2  1  0
  2  3  3  0
  3  4  1  0
  4  5  1  0
  5  6  1  0
  6  7  1  0
  7  8  1  0
  8  9  1  0
  9 10  1  0
 10 11  1  0
 11 12  1  1
 11 13  1  0
  6 14  2  0
 14 15  1  0
 15 16  2  0
 16 17  1  0
 17 18  2  0
 17 19  1  0
 19 20  1  0
 20 21  1  0
 21 22  2  0
 22 23  1  0
 23 24  1  0
 23 25  2  0
 25 26  1  0
 26 27  2  0
 27 28  1  0
 28 29  2  0
 29 30  1  0
 30 31  2  0
 19 32  1  0
 32 33  2  0
 32 34  1  0
 34 35  1  0
 16  5  1  0
 31 21  1  0
 13  7  1  0
 34 15  1  0
 30 25  1  0
M  END
$$$$
