
     RDKit          3D

 26 28  0  0  0  0  0  0  0  0999 V2000
  -18.6713   42.9942  -22.9670 O   0  0  0  0  0  0  0  0  0  0  0  0
  -18.1637   42.7503  -21.8071 C   0  0  0  0  0  0  0  0  0  0  0  0
  -18.8630   41.7344  -21.0169 C   0  0  0  0  0  0  0  0  0  0  0  0
  -19.1852   40.4849  -21.8106 C   0  0  0  0  0  0  0  0  0  0  0  0
  -19.1591   39.2936  -20.9026 C   0  0  0  0  0  0  0  0  0  0  0  0
  -19.5630   38.1089  -21.6791 N   0  0  0  0  0  0  0  0  0  0  0  0
  -20.4069   37.2641  -20.8356 C   0  0  0  0  0  0  0  0  0  0  0  0
  -19.8901   35.8816  -20.6970 C   0  0  0  0  0  0  0  0  0  0  0  0
  -19.6357   35.2759  -22.0369 C   0  0  0  0  0  0  0  0  0  0  0  0
  -20.8573   35.0891  -22.7183 O   0  0  0  0  0  0  0  0  0  0  0  0
  -19.0266   33.9082  -21.9229 C   0  0  0  0  0  0  0  0  0  0  0  0
  -19.7143   32.8669  -21.3436 C   0  0  0  0  0  0  0  0  0  0  0  0
  -19.1708   31.6014  -21.2181 C   0  0  0  0  0  0  0  0  0  0  0  0
  -17.8981   31.3362  -21.6786 C   0  0  0  0  0  0  0  0  0  0  0  0
  -17.2153   29.7179  -21.5130 Cl  0  0  0  0  0  0  0  0  0  0  0  0
  -17.1903   32.3611  -22.2628 C   0  0  0  0  0  0  0  0  0  0  0  0
  -17.7568   33.6323  -22.3796 C   0  0  0  0  0  0  0  0  0  0  0  0
  -18.7311   36.1738  -22.8479 C   0  0  0  0  0  0  0  0  0  0  0  0
  -18.3501   37.3711  -22.0482 C   0  0  0  0  0  0  0  0  0  0  0  0
  -16.9943   43.4739  -21.3947 C   0  0  0  0  0  0  0  0  0  0  0  0
  -16.3899   43.1742  -20.1779 C   0  0  0  0  0  0  0  0  0  0  0  0
  -15.2789   43.8344  -19.7130 C   0  0  0  0  0  0  0  0  0  0  0  0
  -14.7142   44.8424  -20.4600 C   0  0  0  0  0  0  0  0  0  0  0  0
  -13.6177   45.5069  -20.0243 F   0  0  0  0  0  0  0  0  0  0  0  0
  -15.2810   45.1800  -21.6822 C   0  0  0  0  0  0  0  0  0  0  0  0
  -16.4071   44.4855  -22.1159 C   0  0  0  0  0  0  0  0  0  0  0  0
  1  2  2  0
  2  3  1  0
  3  4  1  0
  4  5  1  0
  5  6  1  0
  6  7  1  0
  7  8  1  0
  8  9  1  0
  9 10  1  0
  9 11  1  0
 11 12  2  0
 12 13  1  0
 13 14  2  0
 14 15  1  0
 14 16  1  0
 16 17  2  0
  9 18  1  0
 18 19  1  0
  2 20  1  0
 20 21  2  0
 21 22  1  0
 22 23  2  0
 23 24  1  0
 23 25  1  0
 25 26  2  0
 19  6  1  0
 26 20  1  0
 17 11  1  0
M  END
$$$$
