
     RDKit          3D

 12 12  0  0  0  0  0  0  0  0999 V2000
  -11.0226   23.7782  -10.5152 N   0  0  0  0  0  0  0  0  0  0  0  0
  -10.1798   24.9498  -10.4060 C   0  0  0  0  0  0  0  0  0  0  0  0
  -10.4211   25.7927  -11.6542 C   0  0  0  0  0  0  0  0  0  0  0  0
  -11.9180   25.8987  -11.7892 C   0  0  0  0  0  0  0  0  0  0  0  0
  -12.3827   25.8950  -13.1795 C   0  0  0  0  0  0  0  0  0  0  0  0
  -12.6441   24.9505  -13.9231 O   0  0  0  0  0  0  0  0  0  0  0  0
  -12.5526   27.1842  -13.7561 O   0  0  0  0  0  0  0  0  0  0  0  0
   -9.8519   27.1622  -11.4387 C   0  0  0  0  0  0  0  0  0  0  0  0
   -8.4005   27.3115  -11.7166 C   0  0  0  0  0  0  0  0  0  0  0  0
   -7.6469   26.0996  -12.0947 C   0  0  0  0  0  0  0  0  0  0  0  0
   -8.3850   25.0255  -12.7907 C   0  0  0  0  0  0  0  0  0  0  0  0
   -9.8615   25.2055  -12.8963 C   0  0  0  0  0  0  0  0  0  0  0  0
  1  2  1  0
  2  3  1  0
  3  4  1  0
  4  5  1  0
  5  6  2  0
  5  7  1  0
  3  8  1  0
  8  9  1  0
  9 10  1  0
 10 11  1  0
 11 12  1  0
 12  3  1  0
M  END
$$$$
