
     RDKit          3D

 13 12  0  0  0  0  0  0  0  0999 V2000
  -20.2059   31.7776  -20.6713 C   0  0  0  0  0  0  0  0  0  0  0  0
  -19.8111   32.4967  -21.9086 C   0  0  0  0  0  0  0  0  0  0  0  0
  -19.1248   31.8161  -22.9884 C   0  0  0  0  0  0  0  0  0  0  0  0
  -18.4377   32.5386  -23.8073 N   0  0  0  0  0  0  0  0  0  0  0  0
  -17.0695   32.3518  -24.0207 N   0  0  0  0  0  0  0  0  0  0  0  0
  -16.2984   33.3107  -24.7340 C   0  0  0  0  0  0  0  0  0  0  0  0
  -15.1910   32.9028  -25.2603 N   0  0  0  0  0  0  0  0  0  0  0  0
  -16.7198   34.6718  -24.8704 N   0  0  0  0  0  0  0  0  0  0  0  0
  -20.0815   33.7691  -22.0404 N   0  0  0  0  0  0  0  0  0  0  0  0
  -21.0572   34.3389  -21.2213 N   0  0  0  0  0  0  0  0  0  0  0  0
  -21.4586   35.6885  -21.4216 C   0  0  0  0  0  0  0  0  0  0  0  0
  -20.7989   36.3361  -22.3350 N   0  0  0  0  0  0  0  0  0  0  0  0
  -22.5072   36.2958  -20.6793 N   0  0  0  0  0  0  0  0  0  0  0  0
  1  2  1  0
  2  3  1  0
  3  4  2  3
  4  5  1  0
  5  6  1  0
  6  7  2  0
  6  8  1  0
  2  9  2  3
  9 10  1  0
 10 11  1  0
 11 12  2  0
 11 13  1  0
M  END
$$$$
