
     RDKit          3D

 20 20  0  0  0  0  0  0  0  0999 V2000
  -23.1541   37.0731  -20.8618 C   0  0  0  0  0  0  0  0  0  0  0  0
  -22.2282   36.5428  -21.9106 C   0  0  0  0  0  0  0  0  0  0  0  0
  -21.2802   37.5578  -22.3684 N   0  0  0  0  0  0  0  0  0  0  0  0
  -20.4122   36.9934  -23.3782 C   0  0  1  0  0  0  0  0  0  0  0  0
  -19.4265   37.9981  -23.8741 C   0  0  0  0  0  0  0  0  0  0  0  0
  -18.8492   38.8779  -22.7867 C   0  0  2  0  0  0  0  0  0  0  0  0
  -17.6727   39.6349  -23.3371 C   0  0  0  0  0  0  0  0  0  0  0  0
  -18.2663   37.8091  -21.4934 S   0  0  0  0  0  6  0  0  0  0  0  0
  -18.9664   38.1705  -20.2131 O   0  0  0  0  0  0  0  0  0  0  0  0
  -16.7645   37.9263  -21.3263 O   0  0  0  0  0  0  0  0  0  0  0  0
  -18.6691   36.1985  -21.9178 C   0  0  0  0  0  0  0  0  0  0  0  0
  -17.9605   34.6070  -21.3860 S   0  0  0  0  0  0  0  0  0  0  0  0
  -19.0705   33.5905  -22.3881 C   0  0  0  0  0  0  0  0  0  0  0  0
  -19.0588   31.8357  -22.4626 S   0  0  0  0  0  6  0  0  0  0  0  0
  -20.2617   31.2521  -23.5237 N   0  0  0  0  0  0  0  0  0  0  0  0
  -19.2855   31.2362  -21.1040 O   0  0  0  0  0  0  0  0  0  0  0  0
  -17.7294   31.3263  -22.9448 O   0  0  0  0  0  0  0  0  0  0  0  0
  -19.8681   34.5133  -23.0286 C   0  0  0  0  0  0  0  0  0  0  0  0
  -19.6460   35.8096  -22.7756 C   0  0  0  0  0  0  0  0  0  0  0  0
  -19.7988   35.5720  -22.5693 Cl  0  0  0  0  0  0  0  0  0  0  0  0
  1  2  1  0
  2  3  1  0
  4  3  1  1
  4  5  1  0
  5  6  1  0
  6  7  1  6
  6  8  1  0
  8  9  2  0
  8 10  2  0
  8 11  1  0
 11 12  1  0
 12 13  1  0
 13 14  1  0
 14 15  1  0
 14 16  2  0
 14 17  2  0
 13 18  2  0
 18 19  1  0
 19  4  1  0
 19 11  2  0
M  END
$$$$
