
     RDKit          3D

 12 12  0  0  0  0  0  0  0  0999 V2000
  -15.6009   44.2349  -18.4237 N   0  0  0  0  0  0  0  0  0  0  0  0
  -16.4849   43.1659  -18.7397 C   0  0  0  0  0  0  0  0  0  0  0  0
  -17.1329   42.4294  -17.7665 C   0  0  0  0  0  0  0  0  0  0  0  0
  -17.9889   41.3936  -18.0891 C   0  0  0  0  0  0  0  0  0  0  0  0
  -18.2464   41.0346  -19.3957 C   0  0  0  0  0  0  0  0  0  0  0  0
  -19.3367   39.7176  -19.7466 S   0  0  0  0  0  6  0  0  0  0  0  0
  -20.4999   40.3262  -20.8982 N   0  0  0  0  0  0  0  0  0  0  0  0
  -18.5943   38.6137  -20.4543 O   0  0  0  0  0  0  0  0  0  0  0  0
  -19.9989   39.2074  -18.5205 O   0  0  0  0  0  0  0  0  0  0  0  0
  -17.6036   41.7648  -20.3693 C   0  0  0  0  0  0  0  0  0  0  0  0
  -16.7481   42.7998  -20.0512 C   0  0  0  0  0  0  0  0  0  0  0  0
  -15.9370   43.7205  -21.3019 Cl  0  0  0  0  0  0  0  0  0  0  0  0
  1  2  1  0
  2  3  2  0
  3  4  1  0
  4  5  2  0
  5  6  1  0
  6  7  1  0
  6  8  2  0
  6  9  2  0
  5 10  1  0
 10 11  2  0
 11 12  1  0
 11  2  1  0
M  END
$$$$
