
     RDKit          3D

 23 26  0  0  0  0  0  0  0  0999 V2000
  -21.2781   34.5561  -24.1914 C   0  0  0  0  0  0  0  0  0  0  0  0
  -20.9821   35.1763  -23.2031 C   0  0  0  0  0  0  0  0  0  0  0  0
  -20.6127   35.9326  -22.0343 C   0  0  2  0  0  0  0  0  0  0  0  0
  -20.0445   35.1348  -21.0511 O   0  0  0  0  0  0  0  0  0  0  0  0
  -21.8533   36.5670  -21.4366 C   0  0  0  0  0  0  0  0  0  0  0  0
  -21.3686   37.8114  -20.7726 C   0  0  0  0  0  0  0  0  0  0  0  0
  -19.9364   38.0252  -21.2195 C   0  0  0  0  0  0  0  0  0  0  0  0
  -19.6962   39.4677  -21.4513 C   0  0  0  0  0  0  0  0  0  0  0  0
  -18.3096   39.9219  -21.0272 C   0  0  0  0  0  0  0  0  0  0  0  0
  -18.4095   41.3984  -20.6901 C   0  0  0  0  0  0  0  0  0  0  0  0
  -19.1852   42.0324  -21.8129 C   0  0  0  0  0  0  0  0  0  0  0  0
  -19.5646   43.2676  -21.5969 C   0  0  0  0  0  0  0  0  0  0  0  0
  -20.3211   43.9930  -22.6022 C   0  0  0  0  0  0  0  0  0  0  0  0
  -20.2201   45.2231  -22.7245 O   0  0  0  0  0  0  0  0  0  0  0  0
  -21.2178   43.1463  -23.4638 C   0  0  0  0  0  0  0  0  0  0  0  0
  -20.3835   42.0351  -24.0008 C   0  0  0  0  0  0  0  0  0  0  0  0
  -19.4945   41.3398  -23.0486 C   0  0  2  0  0  0  0  0  0  0  0  0
  -20.0269   39.9362  -22.8494 C   0  0  0  0  0  0  0  0  0  0  0  0
  -19.5280   39.0179  -23.9169 C   0  0  0  0  0  0  0  0  0  0  0  0
  -20.1490   37.6557  -23.6901 C   0  0  0  0  0  0  0  0  0  0  0  0
  -19.7028   37.1199  -22.3699 C   0  0  2  0  0  0  0  0  0  0  0  0
  -18.2610   36.7008  -22.3876 C   0  0  0  0  0  0  0  0  0  0  0  0
  -17.7467   36.3175  -21.0216 C   0  0  0  0  0  0  0  0  0  0  0  0
  1  2  3  0
  2  3  1  0
  3  4  1  1
  3  5  1  0
  5  6  1  0
  6  7  1  0
  7  8  1  0
  8  9  1  0
  9 10  1  0
 10 11  1  0
 11 12  2  0
 12 13  1  0
 13 14  2  0
 13 15  1  0
 15 16  1  0
 17 16  1  1
 17 18  1  0
 18 19  1  0
 19 20  1  0
 20 21  1  0
 21 22  1  6
 22 23  1  0
 21  3  1  0
 21  7  1  0
 18  8  1  0
 17 11  1  0
M  END
$$$$
