
     RDKit          3D

 30 32  0  0  0  0  0  0  0  0999 V2000
   -7.5478   19.4613  -44.0336 C   0  0  0  0  0  0  0  0  0  0  0  0
   -9.0041   19.7615  -44.3032 C   0  0  0  0  0  0  0  0  0  0  0  0
   -9.0701   20.5718  -45.5933 C   0  0  0  0  0  0  0  0  0  0  0  0
   -9.5554   20.6007  -43.1445 C   0  0  0  0  0  0  0  0  0  0  0  0
   -9.7362   19.7611  -42.0004 N   0  0  0  0  0  0  0  0  0  0  0  0
   -8.8554   19.4073  -41.0872 N   0  0  0  0  0  0  0  0  0  0  0  0
   -9.4213   18.6034  -40.1718 C   0  0  0  0  0  0  0  0  0  0  0  0
  -10.7442   18.4392  -40.5305 C   0  0  0  0  0  0  0  0  0  0  0  0
  -11.8086   17.7493  -40.0066 C   0  0  0  0  0  0  0  0  0  0  0  0
  -13.0472   17.8078  -40.6512 C   0  0  0  0  0  0  0  0  0  0  0  0
  -14.0829   17.1053  -40.0925 O   0  0  0  0  0  0  0  0  0  0  0  0
  -14.6367   17.3594  -38.8453 C   0  0  0  0  0  0  0  0  0  0  0  0
  -14.5858   18.6054  -38.2707 C   0  0  0  0  0  0  0  0  0  0  0  0
  -15.1344   18.8470  -37.0380 C   0  0  0  0  0  0  0  0  0  0  0  0
  -15.7498   17.8351  -36.3525 C   0  0  0  0  0  0  0  0  0  0  0  0
  -16.2939   18.0879  -35.1231 F   0  0  0  0  0  0  0  0  0  0  0  0
  -15.8258   16.5615  -36.8914 C   0  0  0  0  0  0  0  0  0  0  0  0
  -15.2689   16.3500  -38.1236 C   0  0  0  0  0  0  0  0  0  0  0  0
  -15.3258   15.0912  -38.6532 F   0  0  0  0  0  0  0  0  0  0  0  0
  -13.2664   18.5173  -41.7841 C   0  0  0  0  0  0  0  0  0  0  0  0
  -14.5047   18.6279  -42.5110 C   0  0  0  0  0  0  0  0  0  0  0  0
  -15.4545   19.3654  -42.0482 O   0  0  0  0  0  0  0  0  0  0  0  0
  -14.7962   17.9911  -43.7189 N   0  0  0  0  0  0  0  0  0  0  0  0
  -15.5504   18.5854  -44.8260 C   0  0  0  0  0  0  0  0  0  0  0  0
  -16.9955   18.3883  -44.5589 C   0  0  0  0  0  0  0  0  0  0  0  0
  -17.8624   18.8808  -45.6055 N   0  0  0  0  0  0  0  0  0  0  0  0
  -17.8087   18.0597  -46.7963 C   0  0  0  0  0  0  0  0  0  0  0  0
  -19.2372   18.7257  -45.0990 C   0  0  0  0  0  0  0  0  0  0  0  0
  -12.1528   19.2122  -42.2930 C   0  0  0  0  0  0  0  0  0  0  0  0
  -10.9188   19.1826  -41.6922 C   0  0  0  0  0  0  0  0  0  0  0  0
  1  2  1  0
  2  3  1  0
  2  4  1  0
  4  5  1  0
  5  6  1  0
  6  7  2  0
  7  8  1  0
  8  9  2  0
  9 10  1  0
 10 11  1  0
 11 12  1  0
 12 13  2  0
 13 14  1  0
 14 15  2  0
 15 16  1  0
 15 17  1  0
 17 18  2  0
 18 19  1  0
 10 20  2  0
 20 21  1  0
 21 22  2  0
 21 23  1  0
 23 24  1  0
 24 25  1  0
 25 26  1  0
 26 27  1  0
 26 28  1  0
 20 29  1  0
 29 30  2  0
 30  5  1  0
 30  8  1  0
 18 12  1  0
M  END
$$$$
