
     RDKit          3D

 32 38  0  0  0  0  0  0  0  0999 V2000
  -14.9945   -1.5426  -34.5529 Cl  0  0  0  0  0  0  0  0  0  0  0  0
  -13.6249    1.6434  -30.0085 O   0  0  0  0  0  0  0  0  0  0  0  0
  -13.4577    0.9177  -31.1807 C   0  0  0  0  0  0  0  0  0  0  0  0
  -12.4080    1.1886  -32.0624 C   0  0  0  0  0  0  0  0  0  0  0  0
  -12.2526    0.4486  -33.2422 C   0  0  0  0  0  0  0  0  0  0  0  0
  -13.1478   -0.5470  -33.5191 C   0  0  0  0  0  0  0  0  0  0  0  0
  -14.1534   -0.7653  -32.6183 C   0  0  0  0  0  0  0  0  0  0  0  0
  -14.3691   -0.0974  -31.4649 C   0  0  0  0  0  0  0  0  0  0  0  0
  -15.4943   -0.6469  -30.8730 O   0  0  0  0  0  0  0  0  0  0  0  0
  -16.1644   -1.4963  -31.7953 C   0  0  1  0  0  0  0  0  0  0  0  0
  -17.3491   -0.7875  -32.3338 C   0  0  0  0  0  0  0  0  0  0  0  0
  -18.5786   -0.6278  -31.8153 N   0  0  0  0  0  0  0  0  0  0  0  0
  -19.3570    0.0797  -32.6579 C   0  0  0  0  0  0  0  0  0  0  0  0
  -20.6609    0.5180  -32.6353 C   0  0  0  0  0  0  0  0  0  0  0  0
  -21.2291    1.2402  -33.6559 C   0  0  0  0  0  0  0  0  0  0  0  0
  -20.4764    1.5629  -34.7847 C   0  0  0  0  0  0  0  0  0  0  0  0
  -19.1734    1.1298  -34.8166 C   0  0  0  0  0  0  0  0  0  0  0  0
  -18.6108    0.4019  -33.7816 C   0  0  0  0  0  0  0  0  0  0  0  0
  -17.3727   -0.1500  -33.5487 C   0  0  0  0  0  0  0  0  0  0  0  0
  -16.1073   -0.1751  -34.3610 C   0  0  0  0  0  0  0  0  0  0  0  0
  -15.6092   -1.5712  -34.2681 C   0  0  1  0  0  0  0  0  0  0  0  0
  -16.6413   -2.4576  -34.5646 O   0  0  0  0  0  0  0  0  0  0  0  0
  -14.4402   -1.9236  -35.1312 C   0  0  1  0  0  0  0  0  0  0  0  0
  -13.1096   -1.3690  -34.7187 C   0  0  0  0  0  0  0  0  0  0  0  0
  -14.4328   -3.3616  -35.1930 N   0  0  0  0  0  0  0  0  0  0  0  0
  -13.6612   -3.9417  -36.2259 C   0  0  0  0  0  0  0  0  0  0  0  0
  -14.2599   -3.6527  -37.6062 C   0  0  0  0  0  0  0  0  0  0  0  0
  -13.5314   -4.2245  -38.7707 C   0  0  0  0  0  0  0  0  0  0  0  0
  -13.4840   -2.7542  -38.5214 C   0  0  0  0  0  0  0  0  0  0  0  0
  -14.4685   -4.0214  -33.9373 C   0  0  0  0  0  0  0  0  0  0  0  0
  -14.4887   -3.1581  -32.7156 C   0  0  0  0  0  0  0  0  0  0  0  0
  -15.1732   -1.8509  -32.8438 C   0  0  1  0  0  0  0  0  0  0  0  0
  2  3  1  0
  3  4  2  0
  4  5  1  0
  5  6  2  0
  6  7  1  0
  7  8  2  0
  8  9  1  0
 10  9  1  1
 10 11  1  0
 11 12  1  0
 12 13  1  0
 13 14  2  0
 14 15  1  0
 15 16  2  0
 16 17  1  0
 17 18  2  0
 18 19  1  0
 19 20  1  0
 20 21  1  0
 21 22  1  6
 21 23  1  0
 23 24  1  1
 23 25  1  0
 25 26  1  0
 26 27  1  0
 27 28  1  0
 28 29  1  0
 25 30  1  0
 30 31  1  0
 32 31  1  6
  8  3  1  0
 32 10  1  0
 24  6  1  0
 29 27  1  0
 32  7  1  0
 19 11  2  0
 32 21  1  0
 18 13  1  0
M  END
$$$$
