
     RDKit          3D

 16 18  0  0  0  0  0  0  0  0999 V2000
  -12.2830   46.2728  -19.5411 C   0  0  0  0  0  0  0  0  0  0  0  0
  -13.1926   45.1814  -19.2188 N   0  0  0  0  0  0  0  0  0  0  0  0
  -14.4339   45.2310  -19.9594 C   0  0  0  0  0  0  0  0  0  0  0  0
  -14.6470   46.2432  -20.8852 C   0  0  0  0  0  0  0  0  0  0  0  0
  -15.7892   46.3790  -21.6484 C   0  0  0  0  0  0  0  0  0  0  0  0
  -16.7707   45.4393  -21.4659 C   0  0  0  0  0  0  0  0  0  0  0  0
  -16.6114   44.4311  -20.5743 C   0  0  0  0  0  0  0  0  0  0  0  0
  -15.4544   44.3234  -19.8247 C   0  0  0  0  0  0  0  0  0  0  0  0
  -15.2867   42.9882  -18.6671 S   0  0  0  0  0  0  0  0  0  0  0  0
  -13.6949   43.1526  -17.9144 C   0  0  0  0  0  0  0  0  0  0  0  0
  -13.3618   42.1985  -16.9905 C   0  0  0  0  0  0  0  0  0  0  0  0
  -12.1442   42.2453  -16.3519 C   0  0  0  0  0  0  0  0  0  0  0  0
  -11.8061   41.2582  -15.3995 N   0  0  0  0  0  0  0  0  0  0  0  0
  -11.3092   43.2730  -16.6856 C   0  0  0  0  0  0  0  0  0  0  0  0
  -11.6398   44.2580  -17.6322 C   0  0  0  0  0  0  0  0  0  0  0  0
  -12.8753   44.2002  -18.2720 C   0  0  0  0  0  0  0  0  0  0  0  0
  1  2  1  0
  2  3  1  0
  3  4  2  0
  4  5  1  0
  5  6  2  0
  6  7  1  0
  7  8  2  0
  8  9  1  0
  9 10  1  0
 10 11  2  0
 11 12  1  0
 12 13  1  0
 12 14  2  0
 14 15  1  0
 15 16  2  0
 16  2  1  0
  8  3  1  0
 16 10  1  0
M  END
$$$$
