
     RDKit          3D

 31 36  0  0  0  0  0  0  0  0999 V2000
  -19.5041   37.1837  -20.9295 C   0  0  0  0  0  0  0  0  0  0  0  0
  -19.8913   37.6000  -22.1828 C   0  0  0  0  0  0  0  0  0  0  0  0
  -19.5680   38.9111  -22.2559 N   0  0  0  0  0  0  0  0  0  0  0  0
  -19.7340   39.8011  -23.2735 C   0  0  0  0  0  0  0  0  0  0  0  0
  -19.3175   41.0964  -23.1018 C   0  0  0  0  0  0  0  0  0  0  0  0
  -19.4525   42.1071  -24.1439 C   0  0  0  0  0  0  0  0  0  0  0  0
  -19.1729   43.4183  -23.9065 C   0  0  0  0  0  0  0  0  0  0  0  0
  -19.3300   44.3350  -24.9479 C   0  0  0  0  0  0  0  0  0  0  0  0
  -19.7588   43.9264  -26.1920 C   0  0  0  0  0  0  0  0  0  0  0  0
  -19.9922   44.6042  -27.3617 C   0  0  0  0  0  0  0  0  0  0  0  0
  -20.3984   43.6875  -28.2491 N   0  0  0  0  0  0  0  0  0  0  0  0
  -20.4324   42.4842  -27.7060 N   0  0  0  0  0  0  0  0  0  0  0  0
  -20.0407   42.6027  -26.4308 C   0  0  0  0  0  0  0  0  0  0  0  0
  -19.8862   41.7078  -25.4101 C   0  0  0  0  0  0  0  0  0  0  0  0
  -18.7509   41.4761  -21.9346 N   0  0  0  0  0  0  0  0  0  0  0  0
  -18.5981   40.5857  -20.9503 C   0  0  0  0  0  0  0  0  0  0  0  0
  -18.0106   40.9687  -19.7310 N   0  0  0  0  0  0  0  0  0  0  0  0
  -17.5824   42.3034  -19.5501 C   0  0  0  0  0  0  0  0  0  0  0  0
  -16.7646   42.8846  -20.4926 C   0  0  0  0  0  0  0  0  0  0  0  0
  -16.3429   44.2048  -20.3105 C   0  0  0  0  0  0  0  0  0  0  0  0
  -16.7442   44.9001  -19.2052 C   0  0  0  0  0  0  0  0  0  0  0  0
  -16.3223   46.2524  -19.0230 N   0  0  0  0  0  0  0  0  0  0  0  0
  -16.1767   46.8799  -17.7361 C   0  0  0  0  0  0  0  0  0  0  0  0
  -16.7224   48.3094  -17.8953 C   0  0  0  0  0  0  0  0  0  0  0  0
  -15.8658   48.9357  -18.7865 O   0  0  0  0  0  0  0  0  0  0  0  0
  -15.9895   48.4709  -20.0777 C   0  0  0  0  0  0  0  0  0  0  0  0
  -16.0379   47.0039  -20.2355 C   0  0  0  0  0  0  0  0  0  0  0  0
  -17.5759   44.2959  -18.2551 C   0  0  0  0  0  0  0  0  0  0  0  0
  -17.9926   43.0069  -18.4256 C   0  0  0  0  0  0  0  0  0  0  0  0
  -19.0089   39.2761  -21.0985 C   0  0  0  0  0  0  0  0  0  0  0  0
  -18.9553   38.2332  -20.2602 N   0  0  0  0  0  0  0  0  0  0  0  0
  1  2  2  0
  2  3  1  0
  3  4  1  0
  4  5  2  0
  5  6  1  0
  6  7  2  0
  7  8  1  0
  8  9  2  0
  9 10  1  0
 10 11  2  0
 11 12  1  0
 12 13  1  0
 13 14  2  0
  5 15  1  0
 15 16  2  0
 16 17  1  0
 17 18  1  0
 18 19  2  0
 19 20  1  0
 20 21  2  0
 21 22  1  0
 22 23  1  0
 23 24  1  0
 24 25  1  0
 25 26  1  0
 26 27  1  0
 21 28  1  0
 28 29  2  0
 16 30  1  0
 30 31  2  0
 31  1  1  0
 30  3  1  0
 14  6  1  0
 29 18  1  0
 13  9  1  0
 27 22  1  0
M  END
$$$$
