
     RDKit          3D

 20 21  0  0  0  0  0  0  0  0999 V2000
  -21.0679   34.0642  -21.4688 C   0  0  0  0  0  0  0  0  0  0  0  0
  -20.3080   35.0234  -22.1810 O   0  0  0  0  0  0  0  0  0  0  0  0
  -20.0162   36.2302  -21.5370 C   0  0  0  0  0  0  0  0  0  0  0  0
  -20.9892   37.1586  -21.2500 C   0  0  0  0  0  0  0  0  0  0  0  0
  -20.6986   38.3538  -20.6118 C   0  0  0  0  0  0  0  0  0  0  0  0
  -19.4156   38.6581  -20.2389 C   0  0  0  0  0  0  0  0  0  0  0  0
  -19.0715   39.8819  -19.5774 C   0  0  0  0  0  0  0  0  0  0  0  0
  -19.8227   40.3391  -18.6722 O   0  0  0  0  0  0  0  0  0  0  0  0
  -17.8813   40.6272  -19.9079 C   0  0  0  0  0  0  0  0  0  0  0  0
  -17.5907   41.7377  -19.2955 C   0  0  0  0  0  0  0  0  0  0  0  0
  -16.4284   42.5332  -19.6368 C   0  0  0  0  0  0  0  0  0  0  0  0
  -15.7663   43.2839  -18.6476 C   0  0  0  0  0  0  0  0  0  0  0  0
  -14.6628   44.0521  -18.9206 C   0  0  0  0  0  0  0  0  0  0  0  0
  -14.1491   44.1220  -20.1919 C   0  0  0  0  0  0  0  0  0  0  0  0
  -12.7491   45.0972  -20.5359 Cl  0  0  0  0  0  0  0  0  0  0  0  0
  -14.7625   43.4063  -21.1890 C   0  0  0  0  0  0  0  0  0  0  0  0
  -15.8768   42.6357  -20.8932 C   0  0  0  0  0  0  0  0  0  0  0  0
  -18.4174   37.7393  -20.5168 C   0  0  0  0  0  0  0  0  0  0  0  0
  -17.0901   37.9723  -20.1712 O   0  0  0  0  0  0  0  0  0  0  0  0
  -18.7349   36.5629  -21.1504 C   0  0  0  0  0  0  0  0  0  0  0  0
  1  2  1  0
  2  3  1  0
  3  4  2  0
  4  5  1  0
  5  6  2  0
  6  7  1  0
  7  8  2  0
  7  9  1  0
  9 10  2  0
 10 11  1  0
 11 12  2  0
 12 13  1  0
 13 14  2  0
 14 15  1  0
 14 16  1  0
 16 17  2  0
  6 18  1  0
 18 19  1  0
 18 20  2  0
 20  3  1  0
 17 11  1  0
M  END
$$$$
