
     RDKit          3D

 25 27  0  0  0  0  0  0  0  0999 V2000
  -15.6886   15.0355  -37.3073 C   0  0  0  0  0  0  0  0  0  0  0  0
  -15.7219   16.4456  -37.5539 N   0  0  0  0  0  0  0  0  0  0  0  0
  -14.5605   17.0358  -38.1397 C   0  0  0  0  0  0  0  0  0  0  0  0
  -14.6678   17.5529  -39.4097 C   0  0  0  0  0  0  0  0  0  0  0  0
  -13.5620   18.1235  -40.0182 C   0  0  0  0  0  0  0  0  0  0  0  0
  -12.3404   18.1852  -39.3699 C   0  0  0  0  0  0  0  0  0  0  0  0
  -12.2253   17.6631  -38.0822 C   0  0  0  0  0  0  0  0  0  0  0  0
  -13.3517   17.0920  -37.4865 C   0  0  0  0  0  0  0  0  0  0  0  0
  -17.0527   17.4412  -37.1899 S   0  0  0  0  0  6  0  0  0  0  0  0
  -18.2183   16.5824  -36.6662 O   0  0  0  0  0  0  0  0  0  0  0  0
  -17.5981   17.9989  -38.4941 O   0  0  0  0  0  0  0  0  0  0  0  0
  -16.7769   18.6650  -35.9972 C   0  0  0  0  0  0  0  0  0  0  0  0
  -15.6237   18.6270  -35.1845 C   0  0  0  0  0  0  0  0  0  0  0  0
  -15.3611   19.5954  -34.2507 C   0  0  0  0  0  0  0  0  0  0  0  0
  -16.2137   20.6601  -34.0581 C   0  0  0  0  0  0  0  0  0  0  0  0
  -17.3397   20.7152  -34.8371 C   0  0  0  0  0  0  0  0  0  0  0  0
  -17.6191   19.7223  -35.8013 C   0  0  0  0  0  0  0  0  0  0  0  0
  -18.8545   19.8453  -36.5731 C   0  0  0  0  0  0  0  0  0  0  0  0
  -18.9172   20.5250  -37.6381 O   0  0  0  0  0  0  0  0  0  0  0  0
  -20.0581   19.2138  -36.1822 N   0  0  0  0  0  0  0  0  0  0  0  0
  -21.2753   19.3664  -36.9171 C   0  0  0  0  0  0  0  0  0  0  0  0
  -22.4559   19.0713  -36.8126 N   0  0  0  0  0  0  0  0  0  0  0  0
  -23.4328   19.3204  -37.6209 C   0  0  0  0  0  0  0  0  0  0  0  0
  -23.0917   20.0094  -38.7453 C   0  0  0  0  0  0  0  0  0  0  0  0
  -21.3057   20.2470  -38.5253 S   0  0  0  0  0  0  0  0  0  0  0  0
  1  2  1  0
  2  3  1  0
  3  4  2  0
  4  5  1  0
  5  6  2  0
  6  7  1  0
  7  8  2  0
  2  9  1  0
  9 10  2  0
  9 11  2  0
  9 12  1  0
 12 13  2  0
 13 14  1  0
 14 15  2  0
 15 16  1  0
 16 17  2  0
 17 18  1  0
 18 19  2  0
 18 20  1  0
 20 21  1  0
 21 22  2  0
 22 23  1  0
 23 24  2  0
 24 25  1  0
  8  3  1  0
 17 12  1  0
 25 21  1  0
M  END
$$$$
