
     RDKit          3D

 15 17  0  0  0  0  0  0  0  0999 V2000
  -16.4561   -0.8427  -31.9187 C   0  0  0  0  0  0  0  0  0  0  0  0
  -15.2317   -0.6041  -31.5610 N   0  0  0  0  0  0  0  0  0  0  0  0
  -14.5104    0.6260  -31.6342 C   0  0  0  0  0  0  0  0  0  0  0  0
  -13.1764    0.4089  -31.3341 C   0  0  0  0  0  0  0  0  0  0  0  0
  -12.3174    1.4949  -31.3550 C   0  0  0  0  0  0  0  0  0  0  0  0
  -12.7594    2.7681  -31.6643 C   0  0  0  0  0  0  0  0  0  0  0  0
  -14.0858    2.9934  -31.9643 C   0  0  0  0  0  0  0  0  0  0  0  0
  -14.9385    1.9066  -31.9420 C   0  0  0  0  0  0  0  0  0  0  0  0
  -16.2360    2.2734  -32.2611 O   0  0  0  0  0  0  0  0  0  0  0  0
  -17.2946    1.4284  -32.6187 C   0  0  0  0  0  0  0  0  0  0  0  0
  -18.3487    2.1212  -33.1924 C   0  0  0  0  0  0  0  0  0  0  0  0
  -19.4935    1.4767  -33.6174 C   0  0  0  0  0  0  0  0  0  0  0  0
  -19.6273    0.1083  -33.4837 C   0  0  0  0  0  0  0  0  0  0  0  0
  -18.5871   -0.5965  -32.9147 C   0  0  0  0  0  0  0  0  0  0  0  0
  -17.4493    0.0620  -32.4948 C   0  0  0  0  0  0  0  0  0  0  0  0
  1  2  2  0
  2  3  1  0
  3  4  2  0
  4  5  1  0
  5  6  2  0
  6  7  1  0
  7  8  2  0
  8  9  1  0
  9 10  1  0
 10 11  2  0
 11 12  1  0
 12 13  2  0
 13 14  1  0
 14 15  2  0
 15  1  1  0
  8  3  1  0
 15 10  1  0
M  END
$$$$
