
     RDKit          3D

 27 29  0  0  0  0  0  0  0  0999 V2000
  -24.3397   22.7673  -38.4976 O   0  0  0  0  0  0  0  0  0  0  0  0
  -24.0151   23.9086  -38.0498 C   0  0  0  0  0  0  0  0  0  0  0  0
  -22.7053   24.3958  -38.2775 N   0  0  0  0  0  0  0  0  0  0  0  0
  -21.7219   23.5687  -38.8894 C   0  0  0  0  0  0  0  0  0  0  0  0
  -20.3736   23.7060  -38.5923 C   0  0  0  0  0  0  0  0  0  0  0  0
  -19.4329   22.9002  -39.1907 C   0  0  0  0  0  0  0  0  0  0  0  0
  -19.8225   21.9394  -40.0998 C   0  0  0  0  0  0  0  0  0  0  0  0
  -18.9275   21.0944  -40.7392 O   0  0  0  0  0  0  0  0  0  0  0  0
  -17.9769   21.5304  -41.6488 C   0  0  0  0  0  0  0  0  0  0  0  0
  -18.2402   22.5111  -42.5828 C   0  0  0  0  0  0  0  0  0  0  0  0
  -17.3064   22.9540  -43.4920 C   0  0  0  0  0  0  0  0  0  0  0  0
  -16.0385   22.4117  -43.4953 C   0  0  0  0  0  0  0  0  0  0  0  0
  -14.7893   22.9146  -44.6152 Cl  0  0  0  0  0  0  0  0  0  0  0  0
  -15.7542   21.4294  -42.5693 C   0  0  0  0  0  0  0  0  0  0  0  0
  -16.7019   20.9876  -41.6548 C   0  0  0  0  0  0  0  0  0  0  0  0
  -21.1549   21.8065  -40.3909 C   0  0  0  0  0  0  0  0  0  0  0  0
  -21.7470   20.6143  -41.5329 Cl  0  0  0  0  0  0  0  0  0  0  0  0
  -22.0925   22.6123  -39.7921 C   0  0  0  0  0  0  0  0  0  0  0  0
  -24.9888   24.6982  -37.3115 C   0  0  0  0  0  0  0  0  0  0  0  0
  -26.3224   24.3807  -37.2448 C   0  0  0  0  0  0  0  0  0  0  0  0
  -27.2355   25.1300  -36.5465 C   0  0  0  0  0  0  0  0  0  0  0  0
  -29.2553   24.5788  -36.4929 I   0  0  0  0  0  0  0  0  0  0  0  0
  -26.8021   26.2509  -35.8811 C   0  0  0  0  0  0  0  0  0  0  0  0
  -25.4489   26.6141  -35.9211 C   0  0  0  0  0  0  0  0  0  0  0  0
  -24.8130   28.3427  -34.8882 I   0  0  0  0  0  0  0  0  0  0  0  0
  -24.5594   25.8411  -36.6304 C   0  0  0  0  0  0  0  0  0  0  0  0
  -23.2199   26.2263  -36.6527 O   0  0  0  0  0  0  0  0  0  0  0  0
  1  2  2  0
  2  3  1  0
  3  4  1  0
  4  5  2  0
  5  6  1  0
  6  7  2  0
  7  8  1  0
  8  9  1  0
  9 10  2  0
 10 11  1  0
 11 12  2  0
 12 13  1  0
 12 14  1  0
 14 15  2  0
  7 16  1  0
 16 17  1  0
 16 18  2  0
  2 19  1  0
 19 20  2  0
 20 21  1  0
 21 22  1  0
 21 23  2  0
 23 24  1  0
 24 25  1  0
 24 26  2  0
 26 27  1  0
 18  4  1  0
 26 19  1  0
 15  9  1  0
M  END
$$$$
