
     RDKit          3D

  5  3  0  0  0  0  0  0  0  0999 V2000
  -17.1153   14.1175  -28.4443 C   0  0  0  0  0  0  0  0  0  0  0  0
  -15.7738   14.7145  -28.3732 N   0  0  0  0  0  0  0  0  0  0  0  0
  -15.4257   14.7588  -26.9728 C   0  0  0  0  0  0  0  0  0  0  0  0
  -14.8899   13.9069  -29.1580 C   0  0  0  0  0  0  0  0  0  0  0  0
  -16.4948   14.0769  -28.0835 Cl  0  0  0  0  0  0  0  0  0  0  0  0
  1  2  1  0
  2  3  1  0
  2  4  1  0
M  END
$$$$
