
     RDKit          3D

 16 17  0  0  0  0  0  0  0  0999 V2000
  -15.4428   43.5882  -19.4595 Cl  0  0  0  0  0  0  0  0  0  0  0  0
  -14.1014   47.2777  -17.9774 C   0  0  0  0  0  0  0  0  0  0  0  0
  -15.3895   46.8833  -18.2369 C   0  0  0  0  0  0  0  0  0  0  0  0
  -15.6648   45.7263  -18.9437 C   0  0  0  0  0  0  0  0  0  0  0  0
  -14.6101   44.9632  -19.3906 C   0  0  0  0  0  0  0  0  0  0  0  0
  -13.3093   45.3528  -19.1338 C   0  0  0  0  0  0  0  0  0  0  0  0
  -13.0381   46.5199  -18.4209 C   0  0  0  0  0  0  0  0  0  0  0  0
  -12.1173   44.5895  -19.5789 C   0  0  0  0  0  0  0  0  0  0  0  0
  -12.4268   43.2546  -20.1673 C   0  0  0  0  0  0  0  0  0  0  0  0
  -13.7471   42.7334  -19.6392 C   0  0  0  0  0  0  0  0  0  0  0  0
  -14.8040   43.7247  -20.1452 C   0  0  0  0  0  0  0  0  0  0  0  0
  -16.1058   43.0955  -19.9737 C   0  0  0  0  0  0  0  0  0  0  0  0
  -16.9246   42.8843  -20.9332 N   0  0  0  0  0  0  0  0  0  0  0  0
  -18.1196   42.2583  -20.4960 C   0  0  0  0  0  0  0  0  0  0  0  0
  -17.8577   41.8225  -19.0945 C   0  0  0  0  0  0  0  0  0  0  0  0
  -16.6719   42.6258  -18.7672 N   0  0  0  0  0  0  0  0  0  0  0  0
  2  3  2  0
  3  4  1  0
  4  5  2  0
  5  6  1  0
  6  7  2  0
  6  8  1  0
  8  9  1  0
  9 10  1  0
 10 11  1  0
 11 12  1  0
 12 13  2  0
 13 14  1  0
 14 15  1  0
 15 16  1  0
  7  2  1  0
 16 12  1  0
 11  5  1  0
M  END
$$$$
