
     RDKit          3D

 22 24  0  0  0  0  0  0  0  0999 V2000
  -14.2722   44.1079  -21.8647 N   0  0  0  0  0  0  0  0  0  0  0  0
  -13.6915   43.8895  -20.5470 C   0  0  0  0  0  0  0  0  0  0  0  0
  -14.6341   44.4105  -19.4866 C   0  0  1  0  0  0  0  0  0  0  0  0
  -15.0101   45.7017  -19.9040 O   0  0  0  0  0  0  0  0  0  0  0  0
  -15.8783   43.5882  -19.4530 C   0  0  0  0  0  0  0  0  0  0  0  0
  -15.8286   42.2010  -19.4534 C   0  0  0  0  0  0  0  0  0  0  0  0
  -16.9793   41.4426  -19.4225 C   0  0  0  0  0  0  0  0  0  0  0  0
  -18.2289   42.0307  -19.3900 C   0  0  0  0  0  0  0  0  0  0  0  0
  -19.6959   41.0517  -19.3504 Cl  0  0  0  0  0  0  0  0  0  0  0  0
  -18.2866   43.4075  -19.3895 C   0  0  0  0  0  0  0  0  0  0  0  0
  -17.1369   44.1575  -19.4203 C   0  0  0  0  0  0  0  0  0  0  0  0
  -14.0005   44.5508  -18.1725 C   0  0  0  0  0  0  0  0  0  0  0  0
  -13.3065   43.4798  -17.6396 C   0  0  0  0  0  0  0  0  0  0  0  0
  -12.6950   43.5670  -16.4058 C   0  0  0  0  0  0  0  0  0  0  0  0
  -12.7645   44.7353  -15.6732 C   0  0  0  0  0  0  0  0  0  0  0  0
  -12.1224   44.8453  -14.3633 C   0  0  0  0  0  0  0  0  0  0  0  0
  -11.2858   43.9260  -13.7649 C   0  0  0  0  0  0  0  0  0  0  0  0
  -10.9134   44.4101  -12.5679 N   0  0  0  0  0  0  0  0  0  0  0  0
  -11.4679   45.5937  -12.3660 N   0  0  0  0  0  0  0  0  0  0  0  0
  -12.2154   45.8928  -13.4447 C   0  0  0  0  0  0  0  0  0  0  0  0
  -13.4654   45.7916  -16.2304 C   0  0  0  0  0  0  0  0  0  0  0  0
  -14.0835   45.7291  -17.4578 C   0  0  0  0  0  0  0  0  0  0  0  0
  1  2  1  0
  2  3  1  0
  3  4  1  6
  3  5  1  0
  5  6  2  0
  6  7  1  0
  7  8  2  0
  8  9  1  0
  8 10  1  0
 10 11  2  0
  3 12  1  0
 12 13  2  0
 13 14  1  0
 14 15  2  0
 15 16  1  0
 16 17  1  0
 17 18  2  0
 18 19  1  0
 19 20  1  0
 15 21  1  0
 21 22  2  0
 11  5  1  0
 22 12  1  0
 20 16  2  0
M  END
$$$$
