
     RDKit          3D

 42 44  0  0  0  0  0  0  0  0999 V2000
  -29.1427   13.1677  -21.7869 Cl  0  0  0  0  0  0  0  0  0  0  0  0
  -22.5498   15.2909  -21.0679 O   0  0  0  0  0  0  0  0  0  0  0  0
  -22.0827   14.6011  -21.9994 C   0  0  0  0  0  0  0  0  0  0  0  0
  -21.0071   13.7793  -21.7667 O   0  0  0  0  0  0  0  0  0  0  0  0
  -22.6899   14.6750  -23.3410 C   0  0  0  0  0  0  0  0  0  0  0  0
  -23.8207   15.6298  -23.3002 C   0  0  0  0  0  0  0  0  0  0  0  0
  -23.5955   16.9675  -23.5694 C   0  0  0  0  0  0  0  0  0  0  0  0
  -24.6601   17.8182  -23.5226 C   0  0  0  0  0  0  0  0  0  0  0  0
  -25.9287   17.3605  -23.2154 C   0  0  0  0  0  0  0  0  0  0  0  0
  -26.1853   16.0339  -22.9424 C   0  0  0  0  0  0  0  0  0  0  0  0
  -27.4505   15.5725  -22.6352 O   0  0  0  0  0  0  0  0  0  0  0  0
  -27.7242   14.2135  -22.3538 C   0  0  0  0  0  0  0  0  0  0  0  0
  -29.2069   14.0124  -22.0510 C   0  0  0  0  0  0  0  0  0  0  0  0
  -29.4023   12.5588  -21.7660 C   0  0  0  0  0  0  0  0  0  0  0  0
  -30.7714   12.2005  -21.4580 N   0  0  0  0  0  0  0  0  0  0  0  0
  -31.5741   12.3462  -22.6237 C   0  0  0  0  0  0  0  0  0  0  0  0
  -31.0608   11.4788  -23.7068 C   0  0  0  0  0  0  0  0  0  0  0  0
  -30.3571   11.9992  -24.7684 C   0  0  0  0  0  0  0  0  0  0  0  0
  -29.8780   11.1784  -25.7898 C   0  0  0  0  0  0  0  0  0  0  0  0
  -30.1053    9.8233  -25.7488 C   0  0  0  0  0  0  0  0  0  0  0  0
  -30.8045    9.2897  -24.6987 C   0  0  0  0  0  0  0  0  0  0  0  0
  -31.0456    7.8321  -24.6590 C   0  0  0  0  0  0  0  0  0  0  0  0
  -30.4757    7.3298  -23.5247 F   0  0  0  0  0  0  0  0  0  0  0  0
  -32.4290    7.6739  -24.5062 F   0  0  0  0  0  0  0  0  0  0  0  0
  -30.6922    7.1964  -25.8076 F   0  0  0  0  0  0  0  0  0  0  0  0
  -31.2794   10.1205  -23.6817 C   0  0  0  0  0  0  0  0  0  0  0  0
  -32.1603    9.3338  -22.3909 Cl  0  0  0  0  0  0  0  0  0  0  0  0
  -31.2587   12.8523  -20.2835 C   0  0  0  0  0  0  0  0  0  0  0  0
  -32.6388   12.5681  -19.8628 C   0  0  0  0  0  0  0  0  0  0  0  0
  -32.9629   11.1818  -19.5460 C   0  0  0  0  0  0  0  0  0  0  0  0
  -34.2521   10.7309  -19.7811 C   0  0  0  0  0  0  0  0  0  0  0  0
  -34.6674    9.4566  -19.5229 C   0  0  0  0  0  0  0  0  0  0  0  0
  -33.7557    8.5463  -18.9932 C   0  0  0  0  0  0  0  0  0  0  0  0
  -32.4817    8.9738  -18.7557 C   0  0  0  0  0  0  0  0  0  0  0  0
  -32.0697   10.2693  -19.0211 C   0  0  0  0  0  0  0  0  0  0  0  0
  -32.9171   13.3867  -18.6352 C   0  0  0  0  0  0  0  0  0  0  0  0
  -32.8028   14.7734  -18.6427 C   0  0  0  0  0  0  0  0  0  0  0  0
  -33.0732   15.4963  -17.4769 C   0  0  0  0  0  0  0  0  0  0  0  0
  -33.4530   14.8702  -16.3109 C   0  0  0  0  0  0  0  0  0  0  0  0
  -33.5664   13.4979  -16.3031 C   0  0  0  0  0  0  0  0  0  0  0  0
  -33.3001   12.8041  -17.4456 C   0  0  0  0  0  0  0  0  0  0  0  0
  -25.0848   15.1707  -22.9935 C   0  0  0  0  0  0  0  0  0  0  0  0
  2  3  2  0
  3  4  1  0
  3  5  1  0
  5  6  1  0
  6  7  2  0
  7  8  1  0
  8  9  2  0
  9 10  1  0
 10 11  1  0
 11 12  1  0
 12 13  1  0
 13 14  1  0
 14 15  1  0
 15 16  1  0
 16 17  1  0
 17 18  2  0
 18 19  1  0
 19 20  2  0
 20 21  1  0
 21 22  1  0
 22 23  1  0
 22 24  1  0
 22 25  1  0
 21 26  2  0
 26 27  1  0
 15 28  1  0
 28 29  1  0
 29 30  1  0
 30 31  2  0
 31 32  1  0
 32 33  2  0
 33 34  1  0
 34 35  2  0
 29 36  1  0
 36 37  2  0
 37 38  1  0
 38 39  2  0
 39 40  1  0
 40 41  2  0
 10 42  2  0
 42  6  1  0
 26 17  1  0
 35 30  1  0
 41 36  1  0
M  END
$$$$
