
     RDKit          3D

 20 21  0  0  0  0  0  0  0  0999 V2000
  -20.9953   42.5382  -25.6274 C   0  0  0  0  0  0  0  0  0  0  0  0
  -20.1375   42.6180  -24.4069 C   0  0  0  0  0  0  0  0  0  0  0  0
  -18.8676   43.4134  -24.6459 C   0  0  0  0  0  0  0  0  0  0  0  0
  -20.9212   43.4054  -23.3459 C   0  0  0  0  0  0  0  0  0  0  0  0
  -19.8410   41.2914  -23.7781 C   0  0  0  0  0  0  0  0  0  0  0  0
  -21.0773   40.6829  -23.4719 O   0  0  0  0  0  0  0  0  0  0  0  0
  -18.9965   41.3668  -22.5249 C   0  0  0  0  0  0  0  0  0  0  0  0
  -17.8162   42.0611  -22.6546 O   0  0  0  0  0  0  0  0  0  0  0  0
  -17.1063   42.6853  -21.6578 C   0  0  0  0  0  0  0  0  0  0  0  0
  -17.0421   42.2827  -20.3466 C   0  0  0  0  0  0  0  0  0  0  0  0
  -16.2990   42.9635  -19.3757 C   0  0  0  0  0  0  0  0  0  0  0  0
  -15.6012   44.0851  -19.7471 C   0  0  0  0  0  0  0  0  0  0  0  0
  -14.6679   44.9577  -18.5744 Cl  0  0  0  0  0  0  0  0  0  0  0  0
  -15.6553   44.5013  -21.0566 C   0  0  0  0  0  0  0  0  0  0  0  0
  -16.3919   43.8232  -22.0104 C   0  0  0  0  0  0  0  0  0  0  0  0
  -18.7568   40.0178  -22.0355 N   0  0  0  0  0  0  0  0  0  0  0  0
  -17.7406   39.2076  -22.3320 C   0  0  0  0  0  0  0  0  0  0  0  0
  -17.8868   38.0496  -21.6736 N   0  0  0  0  0  0  0  0  0  0  0  0
  -19.0055   38.1406  -20.9604 C   0  0  0  0  0  0  0  0  0  0  0  0
  -19.5324   39.3653  -21.1953 N   0  0  0  0  0  0  0  0  0  0  0  0
  1  2  1  0
  2  3  1  0
  2  4  1  0
  2  5  1  0
  5  6  1  0
  5  7  1  0
  7  8  1  0
  8  9  1  0
  9 10  2  0
 10 11  1  0
 11 12  2  0
 12 13  1  0
 12 14  1  0
 14 15  2  0
  7 16  1  0
 16 17  1  0
 17 18  2  0
 18 19  1  0
 19 20  2  0
 15  9  1  0
 20 16  1  0
M  END
$$$$
