
     RDKit          3D

 10 10  0  0  0  0  0  0  0  0999 V2000
  -16.4099   40.9174  -23.5328 C   0  0  0  0  0  0  0  0  0  0  0  0
  -17.1666   40.1107  -23.0575 C   0  0  0  0  0  0  0  0  0  0  0  0
  -18.0725   39.1324  -22.5104 C   0  0  0  0  0  0  0  0  0  0  0  0
  -18.5754   38.0978  -23.2802 C   0  0  0  0  0  0  0  0  0  0  0  0
  -19.4181   37.2078  -22.7274 N   0  0  0  0  0  0  0  0  0  0  0  0
  -19.8148   37.2577  -21.4430 C   0  0  0  0  0  0  0  0  0  0  0  0
  -20.6097   36.4048  -20.9508 O   0  0  0  0  0  0  0  0  0  0  0  0
  -19.3325   38.2580  -20.6870 N   0  0  0  0  0  0  0  0  0  0  0  0
  -18.4841   39.1771  -21.1932 C   0  0  0  0  0  0  0  0  0  0  0  0
  -18.0502   40.1090  -20.4432 O   0  0  0  0  0  0  0  0  0  0  0  0
  1  2  3  0
  2  3  1  0
  3  4  2  0
  4  5  1  0
  5  6  1  0
  6  7  2  0
  6  8  1  0
  8  9  1  0
  9 10  2  0
  9  3  1  0
M  END
$$$$
