
     RDKit          3D

 27 29  0  0  0  0  0  0  0  0999 V2000
  -25.7088   18.3082  -23.5347 O   0  0  0  0  0  0  0  0  0  0  0  0
  -26.4991   17.3491  -23.6295 C   0  0  0  0  0  0  0  0  0  0  0  0
  -27.7941   17.5516  -24.0715 O   0  0  0  0  0  0  0  0  0  0  0  0
  -26.0790   16.0148  -23.2811 C   0  0  0  0  0  0  0  0  0  0  0  0
  -24.8241   15.5606  -23.6092 C   0  0  0  0  0  0  0  0  0  0  0  0
  -24.4064   14.2854  -23.2275 C   0  0  0  0  0  0  0  0  0  0  0  0
  -25.2629   13.4813  -22.5176 C   0  0  0  0  0  0  0  0  0  0  0  0
  -26.4768   13.9678  -22.2215 N   0  0  0  0  0  0  0  0  0  0  0  0
  -26.9204   15.1944  -22.5720 C   0  0  0  0  0  0  0  0  0  0  0  0
  -28.6051   15.6373  -22.1314 S   0  0  0  0  0  0  0  0  0  0  0  0
  -29.1829   14.4568  -20.9382 C   0  0  0  0  0  0  0  0  0  0  0  0
  -28.2823   13.2786  -20.6885 C   0  0  0  0  0  0  0  0  0  0  0  0
  -29.2134   12.4190  -19.8666 C   0  0  0  0  0  0  0  0  0  0  0  0
  -28.8438   11.6607  -18.9562 O   0  0  0  0  0  0  0  0  0  0  0  0
  -30.5272   12.6601  -20.3438 N   0  0  0  0  0  0  0  0  0  0  0  0
  -31.7230   11.9893  -19.9581 C   0  0  0  0  0  0  0  0  0  0  0  0
  -32.3934   11.1233  -20.8127 C   0  0  0  0  0  0  0  0  0  0  0  0
  -33.5484   10.4963  -20.4034 C   0  0  0  0  0  0  0  0  0  0  0  0
  -34.0880   10.7030  -19.1234 C   0  0  0  0  0  0  0  0  0  0  0  0
  -33.4261   11.5541  -18.2865 C   0  0  0  0  0  0  0  0  0  0  0  0
  -33.9245   11.8311  -16.9253 C   0  0  0  0  0  0  0  0  0  0  0  0
  -34.8041   10.7980  -16.5996 F   0  0  0  0  0  0  0  0  0  0  0  0
  -34.5201   13.0681  -16.8110 F   0  0  0  0  0  0  0  0  0  0  0  0
  -32.8893   11.7780  -16.0050 F   0  0  0  0  0  0  0  0  0  0  0  0
  -32.2769   12.1701  -18.7125 C   0  0  0  0  0  0  0  0  0  0  0  0
  -30.4394   13.7387  -21.3116 C   0  0  0  0  0  0  0  0  0  0  0  0
  -31.2685   13.9310  -22.2021 O   0  0  0  0  0  0  0  0  0  0  0  0
  1  2  2  0
  2  3  1  0
  2  4  1  0
  4  5  2  0
  5  6  1  0
  6  7  2  0
  7  8  1  0
  8  9  2  0
  9 10  1  0
 10 11  1  0
 11 12  1  0
 12 13  1  0
 13 14  2  0
 13 15  1  0
 15 16  1  0
 16 17  2  0
 17 18  1  0
 18 19  2  0
 19 20  1  0
 20 21  1  0
 21 22  1  0
 21 23  1  0
 21 24  1  0
 20 25  2  0
 15 26  1  0
 26 27  2  0
  9  4  1  0
 26 11  1  0
 25 16  1  0
M  END
$$$$
