
     RDKit          3D

 19 21  0  0  0  0  0  0  0  0999 V2000
  -17.5416   36.3832  -20.6071 O   0  0  0  0  0  0  0  0  0  0  0  0
  -18.7000   36.1714  -21.3525 C   0  0  0  0  0  0  0  0  0  0  0  0
  -19.3886   37.5123  -21.5037 C   0  0  1  0  0  0  0  0  0  0  0  0
  -18.7519   38.5037  -20.7541 O   0  0  0  0  0  0  0  0  0  0  0  0
  -19.2651   39.6674  -21.3221 C   0  0  1  0  0  0  0  0  0  0  0  0
  -18.6956   40.8582  -20.7969 N   0  0  0  0  0  0  0  0  0  0  0  0
  -17.6528   40.9461  -19.9595 C   0  0  0  0  0  0  0  0  0  0  0  0
  -17.4165   42.2494  -19.6934 N   0  0  0  0  0  0  0  0  0  0  0  0
  -18.2930   43.0092  -20.3475 C   0  0  0  0  0  0  0  0  0  0  0  0
  -19.0944   42.1163  -21.0402 C   0  0  0  0  0  0  0  0  0  0  0  0
  -20.1787   42.5155  -21.8816 N   0  0  0  0  0  0  0  0  0  0  0  0
  -20.6299   43.8125  -22.2274 C   0  0  0  0  0  0  0  0  0  0  0  0
  -19.9409   44.8960  -22.1078 N   0  0  0  0  0  0  0  0  0  0  0  0
  -18.6069   45.0990  -21.6239 C   0  0  0  0  0  0  0  0  0  0  0  0
  -18.3268   44.4911  -20.2861 C   0  0  1  0  0  0  0  0  0  0  0  0
  -19.3098   44.9041  -19.3591 O   0  0  0  0  0  0  0  0  0  0  0  0
  -18.9580   39.4398  -22.7861 C   0  0  0  0  0  0  0  0  0  0  0  0
  -19.4096   37.9925  -22.9282 C   0  0  2  0  0  0  0  0  0  0  0  0
  -20.7386   37.9388  -23.3694 O   0  0  0  0  0  0  0  0  0  0  0  0
  1  2  1  0
  3  2  1  6
  3  4  1  0
  4  5  1  0
  5  6  1  1
  6  7  1  0
  7  8  2  0
  8  9  1  0
  9 10  2  0
 10 11  1  0
 11 12  1  0
 12 13  2  0
 13 14  1  0
 14 15  1  0
 15 16  1  1
  5 17  1  0
 17 18  1  0
 18 19  1  1
 18  3  1  0
 10  6  1  0
 15  9  1  0
M  END
$$$$
