
     RDKit          3D

 32 34  0  0  0  0  0  0  0  0999 V2000
  -22.5592   16.0563  -28.5214 C   0  0  0  0  0  0  0  0  0  0  0  0
  -22.3044   16.3719  -29.8505 O   0  0  0  0  0  0  0  0  0  0  0  0
  -21.0476   16.5614  -30.3935 C   0  0  0  0  0  0  0  0  0  0  0  0
  -20.8449   17.6103  -31.2649 C   0  0  0  0  0  0  0  0  0  0  0  0
  -19.6065   17.8412  -31.8340 C   0  0  0  0  0  0  0  0  0  0  0  0
  -18.5602   16.9898  -31.5092 C   0  0  0  0  0  0  0  0  0  0  0  0
  -17.2679   17.1983  -32.0781 N   0  0  0  0  0  0  0  0  0  0  0  0
  -17.1240   18.3550  -32.9152 C   0  0  0  0  0  0  0  0  0  0  0  0
  -17.5655   19.4851  -32.5100 O   0  0  0  0  0  0  0  0  0  0  0  0
  -16.4972   18.3193  -34.2157 C   0  0  0  0  0  0  0  0  0  0  0  0
  -16.9348   19.1800  -35.1908 C   0  0  0  0  0  0  0  0  0  0  0  0
  -16.3096   19.1216  -36.4365 C   0  0  0  0  0  0  0  0  0  0  0  0
  -15.2769   18.2213  -36.6832 C   0  0  0  0  0  0  0  0  0  0  0  0
  -14.6601   18.2048  -38.0045 C   0  0  0  0  0  0  0  0  0  0  0  0
  -13.5143   18.7220  -38.2114 N   0  0  0  0  0  0  0  0  0  0  0  0
  -15.3305   17.6034  -39.1089 N   0  0  0  0  0  0  0  0  0  0  0  0
  -14.7694   17.5983  -40.4352 C   0  0  0  0  0  0  0  0  0  0  0  0
  -16.6309   16.9752  -38.8688 C   0  0  0  0  0  0  0  0  0  0  0  0
  -14.8499   17.3697  -35.7050 C   0  0  0  0  0  0  0  0  0  0  0  0
  -15.4784   17.4319  -34.4608 C   0  0  0  0  0  0  0  0  0  0  0  0
  -18.7227   15.9302  -30.6423 C   0  0  0  0  0  0  0  0  0  0  0  0
  -17.5797   15.0748  -30.3450 C   0  0  0  0  0  0  0  0  0  0  0  0
  -17.0296   14.4008  -31.2612 O   0  0  0  0  0  0  0  0  0  0  0  0
  -17.0063   14.9291  -29.0522 N   0  0  0  0  0  0  0  0  0  0  0  0
  -15.9599   13.9962  -28.7848 C   0  0  0  0  0  0  0  0  0  0  0  0
  -15.3985   13.3186  -29.8448 C   0  0  0  0  0  0  0  0  0  0  0  0
  -14.3772   12.3966  -29.6622 C   0  0  0  0  0  0  0  0  0  0  0  0
  -13.8976   12.1387  -28.3870 C   0  0  0  0  0  0  0  0  0  0  0  0
  -12.6083   10.9837  -28.0957 Cl  0  0  0  0  0  0  0  0  0  0  0  0
  -14.4840   12.8359  -27.3523 C   0  0  0  0  0  0  0  0  0  0  0  0
  -15.4819   13.7324  -27.5604 N   0  0  0  0  0  0  0  0  0  0  0  0
  -19.9759   15.7464  -30.1048 C   0  0  0  0  0  0  0  0  0  0  0  0
  1  2  1  0
  2  3  1  0
  3  4  2  0
  4  5  1  0
  5  6  2  0
  6  7  1  0
  7  8  1  0
  8  9  2  0
  8 10  1  0
 10 11  2  0
 11 12  1  0
 12 13  2  0
 13 14  1  0
 14 15  2  0
 14 16  1  0
 16 17  1  0
 16 18  1  0
 13 19  1  0
 19 20  2  0
  6 21  1  0
 21 22  1  0
 22 23  2  0
 22 24  1  0
 24 25  1  0
 25 26  2  0
 26 27  1  0
 27 28  2  0
 28 29  1  0
 28 30  1  0
 30 31  2  0
 21 32  2  0
 32  3  1  0
 20 10  1  0
 31 25  1  0
M  END
$$$$
