
     RDKit          3D

 37 41  0  0  0  0  0  0  0  0999 V2000
  -23.9033   21.3072  -25.3116 C   0  0  0  0  0  0  0  0  0  0  0  0
  -24.3815   20.2354  -26.1633 N   0  0  0  0  0  0  0  0  0  0  0  0
  -24.5247   18.9445  -25.7794 C   0  0  0  0  0  0  0  0  0  0  0  0
  -24.2579   18.4489  -24.4717 N   0  0  0  0  0  0  0  0  0  0  0  0
  -24.0760   17.0692  -24.1626 C   0  0  0  0  0  0  0  0  0  0  0  0
  -23.5118   16.6681  -22.9685 C   0  0  0  0  0  0  0  0  0  0  0  0
  -23.3180   15.3405  -22.6564 C   0  0  0  0  0  0  0  0  0  0  0  0
  -23.6832   14.3286  -23.5335 C   0  0  0  0  0  0  0  0  0  0  0  0
  -23.4555   12.9031  -23.1745 C   0  0  0  0  0  0  0  0  0  0  0  0
  -22.0969   12.6529  -23.2360 F   0  0  0  0  0  0  0  0  0  0  0  0
  -23.9250   12.5891  -21.9369 F   0  0  0  0  0  0  0  0  0  0  0  0
  -24.0596   12.1385  -24.1725 F   0  0  0  0  0  0  0  0  0  0  0  0
  -24.2468   14.7352  -24.7249 C   0  0  0  0  0  0  0  0  0  0  0  0
  -24.4439   16.0662  -25.0446 C   0  0  0  0  0  0  0  0  0  0  0  0
  -24.9776   18.3042  -26.8787 N   0  0  0  0  0  0  0  0  0  0  0  0
  -25.1155   19.1635  -27.9158 C   0  0  0  0  0  0  0  0  0  0  0  0
  -25.5331   19.0567  -29.2204 C   0  0  0  0  0  0  0  0  0  0  0  0
  -25.5713   20.1657  -30.0622 C   0  0  0  0  0  0  0  0  0  0  0  0
  -25.9900   20.0745  -31.3865 O   0  0  0  0  0  0  0  0  0  0  0  0
  -25.0452   19.9816  -32.3890 C   0  0  0  0  0  0  0  0  0  0  0  0
  -24.0463   19.0596  -32.3508 C   0  0  0  0  0  0  0  0  0  0  0  0
  -23.1389   19.0185  -33.3871 C   0  0  0  0  0  0  0  0  0  0  0  0
  -23.2330   19.8728  -34.4225 N   0  0  0  0  0  0  0  0  0  0  0  0
  -24.2059   20.8001  -34.5002 C   0  0  0  0  0  0  0  0  0  0  0  0
  -24.2832   21.7006  -35.6433 C   0  0  0  0  0  0  0  0  0  0  0  0
  -24.2648   21.3931  -36.9557 N   0  0  0  0  0  0  0  0  0  0  0  0
  -24.3586   22.5226  -37.6725 C   0  0  0  0  0  0  0  0  0  0  0  0
  -24.4387   23.5861  -36.8023 C   0  0  0  0  0  0  0  0  0  0  0  0
  -24.5529   25.0148  -37.1756 C   0  0  0  0  0  0  0  0  0  0  0  0
  -23.3166   25.6355  -37.0944 F   0  0  0  0  0  0  0  0  0  0  0  0
  -25.4012   25.6396  -36.2480 F   0  0  0  0  0  0  0  0  0  0  0  0
  -25.0747   25.1265  -38.4441 F   0  0  0  0  0  0  0  0  0  0  0  0
  -24.3906   23.0485  -35.5777 N   0  0  0  0  0  0  0  0  0  0  0  0
  -25.1153   20.8576  -33.4818 C   0  0  0  0  0  0  0  0  0  0  0  0
  -25.1826   21.3946  -29.5809 C   0  0  0  0  0  0  0  0  0  0  0  0
  -24.7662   21.5162  -28.2891 C   0  0  0  0  0  0  0  0  0  0  0  0
  -24.7306   20.4013  -27.4475 C   0  0  0  0  0  0  0  0  0  0  0  0
  1  2  1  0
  2  3  1  0
  3  4  1  0
  4  5  1  0
  5  6  2  0
  6  7  1  0
  7  8  2  0
  8  9  1  0
  9 10  1  0
  9 11  1  0
  9 12  1  0
  8 13  1  0
 13 14  2  0
  3 15  2  0
 15 16  1  0
 16 17  2  0
 17 18  1  0
 18 19  1  0
 19 20  1  0
 20 21  2  0
 21 22  1  0
 22 23  2  0
 23 24  1  0
 24 25  1  0
 25 26  2  0
 26 27  1  0
 27 28  2  0
 28 29  1  0
 29 30  1  0
 29 31  1  0
 29 32  1  0
 28 33  1  0
 24 34  2  0
 18 35  2  0
 35 36  1  0
 36 37  2  0
 37  2  1  0
 14  5  1  0
 37 16  1  0
 34 20  1  0
 33 25  1  0
M  END
$$$$
