
     RDKit          3D

  8  7  0  0  0  0  0  0  0  0999 V2000
  -17.7514   37.7624  -20.6739 O   0  0  0  0  0  0  0  0  0  0  0  0
  -17.7191   37.0450  -21.6698 C   0  0  0  0  0  0  0  0  0  0  0  0
  -16.6626   37.3279  -22.5646 O   0  0  0  0  0  0  0  0  0  0  0  0
  -18.6371   35.9838  -21.9781 C   0  0  0  0  0  0  0  0  0  0  0  0
  -19.5880   35.5074  -21.2225 C   0  0  0  0  0  0  0  0  0  0  0  0
  -20.3726   34.3859  -21.5779 C   0  0  0  0  0  0  0  0  0  0  0  0
  -21.2405   33.9807  -20.6980 O   0  0  0  0  0  0  0  0  0  0  0  0
  -20.4029   33.6110  -22.7068 O   0  0  0  0  0  0  0  0  0  0  0  0
  1  2  2  0
  2  3  1  0
  2  4  1  0
  4  5  2  0
  5  6  1  0
  6  7  2  0
  6  8  1  0
M  END
$$$$
