
     RDKit          3D

 45 50  0  0  0  0  0  0  0  0999 V2000
  -17.8367   43.8861  -25.5954 C   0  0  0  0  0  0  0  0  0  0  0  0
  -18.5090   42.8498  -24.7582 C   0  0  0  0  0  0  0  0  0  0  0  0
  -19.3066   43.4248  -23.5935 C   0  0  2  0  0  0  0  0  0  0  0  0
  -19.9117   44.6848  -24.1100 C   0  0  0  0  0  0  0  0  0  0  0  0
  -21.0489   44.6617  -24.5821 O   0  0  0  0  0  0  0  0  0  0  0  0
  -19.1994   45.9161  -24.0687 N   0  0  0  0  0  0  0  0  0  0  0  0
  -19.5474   47.0575  -24.8884 C   0  0  0  0  0  0  0  0  0  0  0  0
  -18.0980   46.0190  -23.1823 C   0  0  0  0  0  0  0  0  0  0  0  0
  -17.3634   47.2050  -23.0968 C   0  0  0  0  0  0  0  0  0  0  0  0
  -16.3361   47.2378  -22.2368 N   0  0  0  0  0  0  0  0  0  0  0  0
  -15.9900   46.1739  -21.4571 C   0  0  0  0  0  0  0  0  0  0  0  0
  -14.8731   46.2928  -20.5558 N   0  0  0  0  0  0  0  0  0  0  0  0
  -14.5663   45.2726  -19.6165 C   0  0  0  0  0  0  0  0  0  0  0  0
  -15.4949   44.3470  -19.2010 C   0  0  0  0  0  0  0  0  0  0  0  0
  -15.1404   43.3776  -18.2693 C   0  0  0  0  0  0  0  0  0  0  0  0
  -13.8805   43.2983  -17.7325 C   0  0  0  0  0  0  0  0  0  0  0  0
  -13.4527   42.3166  -16.7723 C   0  0  0  0  0  0  0  0  0  0  0  0
  -14.2207   42.0115  -15.8215 O   0  0  0  0  0  0  0  0  0  0  0  0
  -12.1975   41.6929  -16.8728 N   0  0  0  0  0  0  0  0  0  0  0  0
  -11.2775   41.7454  -15.7642 C   0  0  1  0  0  0  0  0  0  0  0  0
  -10.3156   40.5944  -15.9177 C   0  0  0  0  0  0  0  0  0  0  0  0
   -8.9513   41.0718  -15.4886 C   0  0  0  0  0  0  0  0  0  0  0  0
   -9.0360   41.8262  -14.1813 C   0  0  2  0  0  0  0  0  0  0  0  0
   -9.7476   41.0476  -13.2357 N   0  0  0  0  0  0  0  0  0  0  0  0
   -9.3282   39.6483  -13.2203 C   0  0  0  0  0  0  0  0  0  0  0  0
   -8.2127   39.4532  -12.1804 C   0  0  0  0  0  0  0  0  0  0  0  0
   -7.5694   40.7047  -11.9998 N   0  0  0  0  0  0  0  0  0  0  0  0
   -6.1967   40.7109  -11.6823 C   0  0  0  0  0  0  0  0  0  0  0  0
   -5.3057   39.8818  -12.5723 C   0  0  0  0  0  0  0  0  0  0  0  0
   -4.3024   39.0213  -11.7698 C   0  0  0  0  0  0  0  0  0  0  0  0
   -3.8640   40.0998  -12.6649 C   0  0  0  0  0  0  0  0  0  0  0  0
   -8.3614   41.7121  -11.3336 C   0  0  0  0  0  0  0  0  0  0  0  0
   -9.7799   41.5167  -11.8894 C   0  0  0  0  0  0  0  0  0  0  0  0
   -9.7333   43.1172  -14.4471 C   0  0  0  0  0  0  0  0  0  0  0  0
  -10.5704   43.0867  -15.7014 C   0  0  0  0  0  0  0  0  0  0  0  0
  -12.9541   44.2490  -18.1693 C   0  0  0  0  0  0  0  0  0  0  0  0
  -13.2895   45.2180  -19.0939 C   0  0  0  0  0  0  0  0  0  0  0  0
  -12.3123   46.1335  -19.4828 O   0  0  0  0  0  0  0  0  0  0  0  0
  -11.3650   45.7561  -20.4529 C   0  0  0  0  0  0  0  0  0  0  0  0
  -16.7137   45.0546  -21.5645 N   0  0  0  0  0  0  0  0  0  0  0  0
  -17.7618   44.9229  -22.3981 C   0  0  0  0  0  0  0  0  0  0  0  0
  -18.4688   43.6879  -22.4363 N   0  0  0  0  0  0  0  0  0  0  0  0
  -18.3687   42.7326  -21.3885 C   0  0  0  0  0  0  0  0  0  0  0  0
  -18.9725   43.1187  -20.0779 C   0  0  0  0  0  0  0  0  0  0  0  0
  -19.0975   41.4570  -21.8297 C   0  0  0  0  0  0  0  0  0  0  0  0
  1  2  1  0
  3  2  1  6
  3  4  1  0
  4  5  2  0
  4  6  1  0
  6  7  1  0
  6  8  1  0
  8  9  2  0
  9 10  1  0
 10 11  2  0
 11 12  1  0
 12 13  1  0
 13 14  2  0
 14 15  1  0
 15 16  2  0
 16 17  1  0
 17 18  2  0
 17 19  1  0
 20 19  1  6
 20 21  1  0
 21 22  1  0
 22 23  1  0
 23 24  1  1
 24 25  1  0
 25 26  1  0
 26 27  1  0
 27 28  1  0
 28 29  1  0
 29 30  1  0
 30 31  1  0
 27 32  1  0
 32 33  1  0
 23 34  1  0
 34 35  1  0
 16 36  1  0
 36 37  2  0
 37 38  1  0
 38 39  1  0
 11 40  1  0
 40 41  2  0
 41 42  1  0
 42 43  1  0
 43 44  1  0
 43 45  1  0
 42  3  1  0
 41  8  1  0
 37 13  1  0
 35 20  1  0
 33 24  1  0
 31 29  1  0
M  END
$$$$
