
     RDKit          3D

 20 21  0  0  0  0  0  0  0  0999 V2000
  -12.6829   13.1933  -30.6469 C   0  0  0  0  0  0  0  0  0  0  0  0
  -14.0723   13.6186  -30.3603 C   0  0  0  0  0  0  0  0  0  0  0  0
  -14.7278   13.0394  -29.3224 C   0  0  0  0  0  0  0  0  0  0  0  0
  -16.0147   13.4378  -29.0573 C   0  0  0  0  0  0  0  0  0  0  0  0
  -16.6265   14.4008  -29.8250 C   0  0  0  0  0  0  0  0  0  0  0  0
  -17.8675   14.8149  -29.5777 N   0  0  0  0  0  0  0  0  0  0  0  0
  -18.5251   15.7582  -30.2710 C   0  0  0  0  0  0  0  0  0  0  0  0
  -19.7448   16.2833  -30.0501 N   0  0  0  0  0  0  0  0  0  0  0  0
  -20.9966   16.8222  -29.8232 C   0  0  0  0  0  0  0  0  0  0  0  0
  -22.1679   15.8623  -29.9181 C   0  0  0  0  0  0  0  0  0  0  0  0
  -22.2991   15.2324  -31.1995 N   0  0  0  0  0  0  0  0  0  0  0  0
  -17.7603   16.3135  -31.3510 C   0  0  0  0  0  0  0  0  0  0  0  0
  -18.1524   17.2585  -32.2053 N   0  0  0  0  0  0  0  0  0  0  0  0
  -17.1246   17.4643  -33.0384 C   0  0  0  0  0  0  0  0  0  0  0  0
  -16.0827   16.6291  -32.6854 C   0  0  0  0  0  0  0  0  0  0  0  0
  -14.7994   16.6363  -33.4057 C   0  0  0  0  0  0  0  0  0  0  0  0
  -16.5222   15.9255  -31.6258 N   0  0  0  0  0  0  0  0  0  0  0  0
  -15.9277   14.9805  -30.8903 C   0  0  0  0  0  0  0  0  0  0  0  0
  -14.6507   14.6033  -31.1736 C   0  0  0  0  0  0  0  0  0  0  0  0
  -17.9026   15.4935  -30.9775 Cl  0  0  0  0  0  0  0  0  0  0  0  0
  1  2  1  0
  2  3  2  0
  3  4  1  0
  4  5  2  0
  5  6  1  0
  6  7  2  0
  7  8  1  0
  8  9  1  0
  9 10  1  0
 10 11  1  0
  7 12  1  0
 12 13  2  0
 13 14  1  0
 14 15  2  0
 15 16  1  0
 15 17  1  0
 17 18  1  0
 18 19  2  0
 19  2  1  0
 18  5  1  0
 17 12  1  0
M  END
$$$$
