
     RDKit          3D

 24 26  0  0  0  0  0  0  0  0999 V2000
  -12.8138   46.3262  -19.6669 C   0  0  0  0  0  0  0  0  0  0  0  0
  -12.9145   45.5646  -18.5027 O   0  0  0  0  0  0  0  0  0  0  0  0
  -13.9004   44.5996  -18.4070 C   0  0  0  0  0  0  0  0  0  0  0  0
  -14.1511   44.0104  -17.1572 C   0  0  0  0  0  0  0  0  0  0  0  0
  -15.1223   43.0431  -17.0006 C   0  0  0  0  0  0  0  0  0  0  0  0
  -15.8750   42.6378  -18.1029 C   0  0  0  0  0  0  0  0  0  0  0  0
  -16.8537   41.7728  -18.3217 N   0  0  0  0  0  0  0  0  0  0  0  0
  -17.2092   41.7980  -19.6039 C   0  0  0  0  0  0  0  0  0  0  0  0
  -18.4593   40.8403  -20.3601 S   0  0  0  0  0  4  0  0  0  0  0  0
  -18.4316   39.3912  -19.8975 O   0  0  0  0  0  0  0  0  0  0  0  0
  -18.3730   40.8506  -22.1532 C   0  0  0  0  0  0  0  0  0  0  0  0
  -19.1824   42.0233  -22.6014 C   0  0  0  0  0  0  0  0  0  0  0  0
  -18.5705   43.2046  -22.8450 N   0  0  0  0  0  0  0  0  0  0  0  0
  -19.2264   44.2995  -23.2632 C   0  0  0  0  0  0  0  0  0  0  0  0
  -20.5905   44.2297  -23.4576 C   0  0  0  0  0  0  0  0  0  0  0  0
  -21.3429   45.4209  -23.9219 C   0  0  0  0  0  0  0  0  0  0  0  0
  -21.2357   43.0401  -23.2167 C   0  0  0  0  0  0  0  0  0  0  0  0
  -22.6316   42.9881  -23.4192 O   0  0  0  0  0  0  0  0  0  0  0  0
  -23.0805   42.4840  -24.6898 C   0  0  0  0  0  0  0  0  0  0  0  0
  -20.5349   41.9347  -22.7887 C   0  0  0  0  0  0  0  0  0  0  0  0
  -21.2743   40.6726  -22.5425 C   0  0  0  0  0  0  0  0  0  0  0  0
  -16.4428   42.6985  -20.2270 N   0  0  0  0  0  0  0  0  0  0  0  0
  -15.6139   43.2283  -19.3208 C   0  0  0  0  0  0  0  0  0  0  0  0
  -14.6416   44.2003  -19.4913 C   0  0  0  0  0  0  0  0  0  0  0  0
  1  2  1  0
  2  3  1  0
  3  4  2  0
  4  5  1  0
  5  6  2  0
  6  7  1  0
  7  8  2  0
  8  9  1  0
  9 10  2  0
  9 11  1  0
 11 12  1  0
 12 13  2  0
 13 14  1  0
 14 15  2  0
 15 16  1  0
 15 17  1  0
 17 18  1  0
 18 19  1  0
 17 20  2  0
 20 21  1  0
  8 22  1  0
 22 23  1  0
 23 24  2  0
 24  3  1  0
 23  6  1  0
 20 12  1  0
M  END
$$$$
