
     RDKit          3D

 29 32  0  0  0  0  0  0  0  0999 V2000
  -23.7800   18.8739  -36.0893 F   0  0  0  0  0  0  0  0  0  0  0  0
  -22.4094   18.7479  -36.0582 C   0  0  0  0  0  0  0  0  0  0  0  0
  -21.8202   17.5042  -35.9872 C   0  0  0  0  0  0  0  0  0  0  0  0
  -20.4467   17.3948  -35.9571 C   0  0  0  0  0  0  0  0  0  0  0  0
  -19.6099   18.5175  -35.9964 C   0  0  0  0  0  0  0  0  0  0  0  0
  -18.1799   18.2836  -35.9313 C   0  0  0  0  0  0  0  0  0  0  0  0
  -17.3956   18.2136  -37.1026 C   0  0  0  0  0  0  0  0  0  0  0  0
  -17.7132   18.3044  -38.4385 C   0  0  0  0  0  0  0  0  0  0  0  0
  -16.7202   18.1954  -39.4020 C   0  0  0  0  0  0  0  0  0  0  0  0
  -15.4056   17.9941  -39.0152 C   0  0  0  0  0  0  0  0  0  0  0  0
  -15.0895   17.9034  -37.6835 C   0  0  0  0  0  0  0  0  0  0  0  0
  -13.6924   17.6881  -37.2280 C   0  0  0  0  0  0  0  0  0  0  0  0
  -13.2932   18.7398  -36.4424 F   0  0  0  0  0  0  0  0  0  0  0  0
  -13.6983   16.5502  -36.4202 F   0  0  0  0  0  0  0  0  0  0  0  0
  -12.8742   17.5229  -38.3032 F   0  0  0  0  0  0  0  0  0  0  0  0
  -16.0965   18.0148  -36.7231 C   0  0  0  0  0  0  0  0  0  0  0  0
  -16.0898   17.9668  -35.3967 N   0  0  0  0  0  0  0  0  0  0  0  0
  -17.3341   18.1270  -34.9052 N   0  0  0  0  0  0  0  0  0  0  0  0
  -17.7200   18.1527  -33.5228 C   0  0  0  0  0  0  0  0  0  0  0  0
  -17.4959   16.8541  -32.8416 C   0  0  0  0  0  0  0  0  0  0  0  0
  -17.2072   15.6740  -33.4790 C   0  0  0  0  0  0  0  0  0  0  0  0
  -17.0196   14.5217  -32.7260 C   0  0  0  0  0  0  0  0  0  0  0  0
  -17.1147   14.5252  -31.3503 C   0  0  0  0  0  0  0  0  0  0  0  0
  -16.9306   13.3998  -30.6228 F   0  0  0  0  0  0  0  0  0  0  0  0
  -17.4082   15.7253  -30.7055 C   0  0  0  0  0  0  0  0  0  0  0  0
  -17.5878   16.8428  -31.4674 C   0  0  0  0  0  0  0  0  0  0  0  0
  -17.9575   18.3346  -30.5847 Cl  0  0  0  0  0  0  0  0  0  0  0  0
  -20.2088   19.7469  -36.0661 C   0  0  0  0  0  0  0  0  0  0  0  0
  -21.5953   19.8520  -36.0967 C   0  0  0  0  0  0  0  0  0  0  0  0
  1  2  1  0
  2  3  2  0
  3  4  1  0
  4  5  2  0
  5  6  1  0
  6  7  2  0
  7  8  1  0
  8  9  2  0
  9 10  1  0
 10 11  2  0
 11 12  1  0
 12 13  1  0
 12 14  1  0
 12 15  1  0
 11 16  1  0
 16 17  2  0
 17 18  1  0
 18 19  1  0
 19 20  1  0
 20 21  2  0
 21 22  1  0
 22 23  2  0
 23 24  1  0
 23 25  1  0
 25 26  2  0
 26 27  1  0
  5 28  1  0
 28 29  2  0
 29  2  1  0
 18  6  1  0
 26 20  1  0
 16  7  1  0
M  END
$$$$
