
     RDKit          3D

 32 36  0  0  0  0  0  0  0  0999 V2000
  -12.3354   42.8969  -15.0846 C   0  0  0  0  0  0  0  0  0  0  0  0
  -12.6176   44.3448  -14.9625 C   0  0  0  0  0  0  0  0  0  0  0  0
  -11.9500   45.0803  -13.9708 C   0  0  0  0  0  0  0  0  0  0  0  0
  -12.2075   46.4201  -13.8678 C   0  0  0  0  0  0  0  0  0  0  0  0
  -11.5744   47.2470  -12.8751 N   0  0  0  0  0  0  0  0  0  0  0  0
  -11.0685   46.6201  -11.6933 C   0  0  0  0  0  0  0  0  0  0  0  0
   -9.9841   47.3380  -10.9812 C   0  0  2  0  0  0  0  0  0  0  0  0
  -10.4596   47.7722   -9.6033 C   0  0  0  0  0  0  0  0  0  0  0  0
   -9.4402   48.4653  -11.6717 N   0  0  0  0  0  0  0  0  0  0  0  0
  -10.4003   49.3376  -12.2669 C   0  0  2  0  0  0  0  0  0  0  0  0
  -10.9957   50.3218  -11.2725 C   0  0  0  0  0  0  0  0  0  0  0  0
  -11.4584   48.6573  -13.0842 C   0  0  0  0  0  0  0  0  0  0  0  0
  -13.0775   46.9925  -14.7028 N   0  0  0  0  0  0  0  0  0  0  0  0
  -13.7221   46.2842  -15.6595 C   0  0  0  0  0  0  0  0  0  0  0  0
  -13.5069   44.9278  -15.8156 C   0  0  0  0  0  0  0  0  0  0  0  0
  -14.2406   44.2177  -16.8581 C   0  0  0  0  0  0  0  0  0  0  0  0
  -13.6125   43.6885  -17.9584 C   0  0  0  0  0  0  0  0  0  0  0  0
  -14.3346   43.0428  -18.9174 C   0  0  0  0  0  0  0  0  0  0  0  0
  -15.7157   42.8831  -18.8451 C   0  0  0  0  0  0  0  0  0  0  0  0
  -16.4183   42.1861  -19.9082 C   0  0  0  0  0  0  0  0  0  0  0  0
  -17.7122   41.8214  -19.6913 N   0  0  0  0  0  0  0  0  0  0  0  0
  -18.4202   41.1725  -20.6266 C   0  0  0  0  0  0  0  0  0  0  0  0
  -17.8286   40.8663  -21.8362 C   0  0  0  0  0  0  0  0  0  0  0  0
  -18.7983   40.2040  -22.5841 C   0  0  0  0  0  0  0  0  0  0  0  0
  -19.9156   40.1489  -21.7854 C   0  0  0  0  0  0  0  0  0  0  0  0
  -19.7035   40.7299  -20.5988 N   0  0  0  0  0  0  0  0  0  0  0  0
  -20.6392   40.8746  -19.4759 C   0  0  0  0  0  0  0  0  0  0  0  0
  -16.5233   41.2280  -22.0696 C   0  0  0  0  0  0  0  0  0  0  0  0
  -15.9874   40.9531  -23.1588 O   0  0  0  0  0  0  0  0  0  0  0  0
  -15.8531   41.8885  -21.0751 N   0  0  0  0  0  0  0  0  0  0  0  0
  -16.3093   43.4253  -17.7307 C   0  0  0  0  0  0  0  0  0  0  0  0
  -15.6001   44.0838  -16.7458 C   0  0  0  0  0  0  0  0  0  0  0  0
  1  2  1  0
  2  3  2  0
  3  4  1  0
  4  5  1  0
  5  6  1  0
  6  7  1  0
  7  8  1  1
  7  9  1  0
  9 10  1  0
 10 11  1  1
 10 12  1  0
  4 13  2  0
 13 14  1  0
 14 15  2  0
 15 16  1  0
 16 17  2  0
 17 18  1  0
 18 19  2  0
 19 20  1  0
 20 21  2  0
 21 22  1  0
 22 23  2  0
 23 24  1  0
 24 25  2  0
 25 26  1  0
 26 27  1  0
 23 28  1  0
 28 29  2  0
 28 30  1  0
 19 31  1  0
 31 32  2  0
 15  2  1  0
 32 16  1  0
 12  5  1  0
 30 20  1  0
 26 22  1  0
M  END
$$$$
