
     RDKit          3D

 32 35  0  0  0  0  0  0  0  0999 V2000
  -27.6213    1.7102  -30.7123 N   0  0  0  0  0  0  0  0  0  0  0  0
  -26.9346    2.1180  -29.5216 C   0  0  0  0  0  0  0  0  0  0  0  0
  -27.6404    2.7430  -28.5176 C   0  0  0  0  0  0  0  0  0  0  0  0
  -29.3770    3.0305  -28.7096 S   0  0  0  0  0  6  0  0  0  0  0  0
  -30.0787    1.7133  -28.9122 O   0  0  0  0  0  0  0  0  0  0  0  0
  -29.8841    3.6246  -27.4475 O   0  0  0  0  0  0  0  0  0  0  0  0
  -29.6803    3.9849  -30.0445 O   0  0  0  0  0  0  0  0  0  0  0  0
  -27.0609    3.1576  -27.3657 C   0  0  0  0  0  0  0  0  0  0  0  0
  -25.6867    2.9401  -27.1927 C   0  0  0  0  0  0  0  0  0  0  0  0
  -25.1451    3.3987  -25.9633 N   0  0  0  0  0  0  0  0  0  0  0  0
  -25.6558    4.5353  -25.2856 C   0  0  0  0  0  0  0  0  0  0  0  0
  -25.5267    4.6739  -23.8986 C   0  0  0  0  0  0  0  0  0  0  0  0
  -26.0182    5.7799  -23.2361 C   0  0  0  0  0  0  0  0  0  0  0  0
  -26.6539    6.7769  -23.9569 C   0  0  0  0  0  0  0  0  0  0  0  0
  -26.7902    6.6572  -25.3244 C   0  0  0  0  0  0  0  0  0  0  0  0
  -27.6026    7.9449  -26.1951 S   0  0  0  0  0  6  0  0  0  0  0  0
  -28.4950    7.3553  -27.5337 N   0  0  0  0  0  0  0  0  0  0  0  0
  -26.6279    8.9702  -26.6917 O   0  0  0  0  0  0  0  0  0  0  0  0
  -28.5673    8.6195  -25.2499 O   0  0  0  0  0  0  0  0  0  0  0  0
  -26.2952    5.5469  -25.9786 C   0  0  0  0  0  0  0  0  0  0  0  0
  -24.9450    2.3160  -28.1718 C   0  0  0  0  0  0  0  0  0  0  0  0
  -25.5738    1.9000  -29.3513 C   0  0  0  0  0  0  0  0  0  0  0  0
  -24.8280    1.2196  -30.4013 C   0  0  0  0  0  0  0  0  0  0  0  0
  -25.4028    0.8480  -31.4664 O   0  0  0  0  0  0  0  0  0  0  0  0
  -23.4037    0.9711  -30.2075 C   0  0  0  0  0  0  0  0  0  0  0  0
  -22.6769    0.3219  -31.2019 C   0  0  0  0  0  0  0  0  0  0  0  0
  -21.3344    0.1021  -30.9882 C   0  0  0  0  0  0  0  0  0  0  0  0
  -20.7151    0.5087  -29.8258 C   0  0  0  0  0  0  0  0  0  0  0  0
  -21.4461    1.1488  -28.8523 C   0  0  0  0  0  0  0  0  0  0  0  0
  -22.7822    1.3762  -29.0472 C   0  0  0  0  0  0  0  0  0  0  0  0
  -23.5257    2.0671  -27.9754 C   0  0  0  0  0  0  0  0  0  0  0  0
  -22.9014    2.4047  -26.9430 O   0  0  0  0  0  0  0  0  0  0  0  0
  1  2  1  0
  2  3  2  0
  3  4  1  0
  4  5  2  0
  4  6  2  0
  4  7  1  0
  3  8  1  0
  8  9  2  0
  9 10  1  0
 10 11  1  0
 11 12  2  0
 12 13  1  0
 13 14  2  0
 14 15  1  0
 15 16  1  0
 16 17  1  0
 16 18  2  0
 16 19  2  0
 15 20  2  0
  9 21  1  0
 21 22  2  0
 22 23  1  0
 23 24  2  0
 23 25  1  0
 25 26  2  0
 26 27  1  0
 27 28  2  0
 28 29  1  0
 29 30  2  0
 30 31  1  0
 31 32  2  0
 22  2  1  0
 30 25  1  0
 20 11  1  0
 31 21  1  0
M  END
$$$$
