
     RDKit          3D

 15 15  0  0  0  0  0  0  0  0999 V2000
  -33.1071    9.2221  -17.0986 C   0  0  0  0  0  0  0  0  0  0  0  0
  -33.7516   10.5179  -16.6628 C   0  0  0  0  0  0  0  0  0  0  0  0
  -34.9461   10.1575  -15.7890 C   0  0  0  0  0  0  0  0  0  0  0  0
  -34.2633   11.3236  -17.8157 C   0  0  0  0  0  0  0  0  0  0  0  0
  -33.1959   11.8351  -18.6903 C   0  0  0  0  0  0  0  0  0  0  0  0
  -32.5920   13.0628  -18.5173 C   0  0  0  0  0  0  0  0  0  0  0  0
  -31.5955   13.5073  -19.3573 C   0  0  0  0  0  0  0  0  0  0  0  0
  -31.1679   12.7311  -20.4059 C   0  0  0  0  0  0  0  0  0  0  0  0
  -30.1203   13.1429  -21.3284 C   0  0  0  0  0  0  0  0  0  0  0  0
  -28.9240   13.7655  -20.6464 C   0  0  0  0  0  0  0  0  0  0  0  0
  -30.6580   14.0588  -22.3829 C   0  0  0  0  0  0  0  0  0  0  0  0
  -30.2175   15.2307  -22.4168 O   0  0  0  0  0  0  0  0  0  0  0  0
  -31.6108   13.5938  -23.2761 O   0  0  0  0  0  0  0  0  0  0  0  0
  -31.7742   11.5082  -20.5726 C   0  0  0  0  0  0  0  0  0  0  0  0
  -32.7735   11.0504  -19.7388 C   0  0  0  0  0  0  0  0  0  0  0  0
  1  2  1  0
  2  3  1  0
  2  4  1  0
  4  5  1  0
  5  6  2  0
  6  7  1  0
  7  8  2  0
  8  9  1  0
  9 10  1  0
  9 11  1  0
 11 12  2  0
 11 13  1  0
  8 14  1  0
 14 15  2  0
 15  5  1  0
M  END
$$$$
