
     RDKit          3D

 25 27  0  0  0  0  0  0  0  0999 V2000
  -31.2422   12.7333  -22.7077 C   0  0  0  0  0  0  0  0  0  0  0  0
  -31.1056   13.5104  -21.4765 C   0  0  0  0  0  0  0  0  0  0  0  0
  -31.8263   13.0612  -20.3572 C   0  0  0  0  0  0  0  0  0  0  0  0
  -32.6308   11.9354  -20.4097 O   0  0  0  0  0  0  0  0  0  0  0  0
  -32.2600   10.6843  -19.9239 C   0  0  0  0  0  0  0  0  0  0  0  0
  -33.4149    9.7066  -19.9724 C   0  0  0  0  0  0  0  0  0  0  0  0
  -33.0309    8.4769  -19.4640 F   0  0  0  0  0  0  0  0  0  0  0  0
  -34.4831   10.1297  -19.2271 F   0  0  0  0  0  0  0  0  0  0  0  0
  -33.8791    9.5643  -21.2839 F   0  0  0  0  0  0  0  0  0  0  0  0
  -31.7223   13.7637  -19.1900 C   0  0  0  0  0  0  0  0  0  0  0  0
  -30.9301   14.8825  -19.1176 C   0  0  0  0  0  0  0  0  0  0  0  0
  -30.2521   15.2819  -20.2194 N   0  0  0  0  0  0  0  0  0  0  0  0
  -30.3165   14.6249  -21.4047 C   0  0  0  0  0  0  0  0  0  0  0  0
  -29.5441   15.1264  -22.5605 C   0  0  0  0  0  0  0  0  0  0  0  0
  -27.7844   14.9995  -22.3809 S   0  0  0  0  0  4  0  0  0  0  0  0
  -27.0795   16.3097  -22.2401 O   0  0  0  0  0  0  0  0  0  0  0  0
  -27.2758   13.7608  -21.2571 C   0  0  0  0  0  0  0  0  0  0  0  0
  -26.0428   13.2244  -21.1528 N   0  0  0  0  0  0  0  0  0  0  0  0
  -26.0703   12.3007  -20.1576 C   0  0  0  0  0  0  0  0  0  0  0  0
  -25.1250   11.4545  -19.6136 C   0  0  0  0  0  0  0  0  0  0  0  0
  -25.4391   10.5974  -18.5806 C   0  0  0  0  0  0  0  0  0  0  0  0
  -26.7135   10.5707  -18.0692 C   0  0  0  0  0  0  0  0  0  0  0  0
  -27.6781   11.4037  -18.5919 C   0  0  0  0  0  0  0  0  0  0  0  0
  -27.3417   12.2525  -19.6244 C   0  0  0  0  0  0  0  0  0  0  0  0
  -28.0412   13.1700  -20.3374 N   0  0  0  0  0  0  0  0  0  0  0  0
  1  2  1  0
  2  3  2  0
  3  4  1  0
  4  5  1  0
  5  6  1  0
  6  7  1  0
  6  8  1  0
  6  9  1  0
  3 10  1  0
 10 11  2  0
 11 12  1  0
 12 13  2  0
 13 14  1  0
 14 15  1  0
 15 16  2  0
 15 17  1  0
 17 18  2  0
 18 19  1  0
 19 20  2  0
 20 21  1  0
 21 22  2  0
 22 23  1  0
 23 24  2  0
 24 25  1  0
 13  2  1  0
 25 17  1  0
 24 19  1  0
M  END
$$$$
