
     RDKit          3D

 12 13  0  0  0  0  0  0  0  0999 V2000
  -19.4269   35.9300  -21.5584 C   0  0  0  0  0  0  0  0  0  0  0  0
  -19.1405   37.3670  -21.2533 C   0  0  0  0  0  0  0  0  0  0  0  0
  -18.4193   37.7657  -20.2032 N   0  0  0  0  0  0  0  0  0  0  0  0
  -18.3719   39.0887  -20.2476 N   0  0  0  0  0  0  0  0  0  0  0  0
  -19.0570   39.5082  -21.3150 C   0  0  0  0  0  0  0  0  0  0  0  0
  -19.2722   40.8412  -21.7557 N   0  0  0  0  0  0  0  0  0  0  0  0
  -18.7240   41.8650  -21.2084 C   0  0  0  0  0  0  0  0  0  0  0  0
  -18.5982   43.2022  -21.8350 C   0  0  0  0  0  0  0  0  0  0  0  0
  -17.6049   43.8624  -20.8689 C   0  0  0  0  0  0  0  0  0  0  0  0
  -18.0535   43.2778  -19.5486 C   0  0  0  0  0  0  0  0  0  0  0  0
  -18.1558   41.8547  -19.9097 N   0  0  0  0  0  0  0  0  0  0  0  0
  -19.5125   38.4259  -21.9056 O   0  0  0  0  0  0  0  0  0  0  0  0
  1  2  1  0
  2  3  2  0
  3  4  1  0
  4  5  2  0
  5  6  1  0
  6  7  2  3
  7  8  1  0
  8  9  1  0
  9 10  1  0
 10 11  1  0
  5 12  1  0
 12  2  1  0
 11  7  1  0
M  END
$$$$
