
     RDKit          3D

 20 22  0  0  0  0  0  0  0  0999 V2000
  -16.9596   43.7992  -19.7410 N   0  0  0  0  0  0  0  0  0  0  0  0
  -17.9288   42.8174  -19.4033 C   0  0  0  0  0  0  0  0  0  0  0  0
  -18.8050   42.9568  -18.3880 N   0  0  0  0  0  0  0  0  0  0  0  0
  -19.7072   42.0357  -18.0787 C   0  0  0  0  0  0  0  0  0  0  0  0
  -20.5713   42.2091  -17.0523 F   0  0  0  0  0  0  0  0  0  0  0  0
  -19.7884   40.8947  -18.7826 N   0  0  0  0  0  0  0  0  0  0  0  0
  -18.9532   40.6717  -19.8129 C   0  0  0  0  0  0  0  0  0  0  0  0
  -18.0253   41.6316  -20.1222 C   0  0  0  0  0  0  0  0  0  0  0  0
  -17.3240   41.1835  -21.1678 N   0  0  0  0  0  0  0  0  0  0  0  0
  -17.8100   39.9704  -21.4971 C   0  0  0  0  0  0  0  0  0  0  0  0
  -18.8202   39.6400  -20.6659 N   0  0  0  0  0  0  0  0  0  0  0  0
  -19.6152   38.4253  -20.6723 C   0  0  2  0  0  0  0  0  0  0  0  0
  -18.8051   37.3513  -20.9088 O   0  0  0  0  0  0  0  0  0  0  0  0
  -19.0410   36.8363  -22.1467 C   0  0  2  0  0  0  0  0  0  0  0  0
  -17.8291   36.4719  -22.9364 C   0  0  0  0  0  0  0  0  0  0  0  0
  -18.2085   36.0288  -24.1920 O   0  0  0  0  0  0  0  0  0  0  0  0
  -19.9028   37.8424  -22.9053 C   0  0  1  0  0  0  0  0  0  0  0  0
  -20.7929   37.2008  -23.7431 O   0  0  0  0  0  0  0  0  0  0  0  0
  -20.6699   38.4430  -21.7195 C   0  0  2  0  0  0  0  0  0  0  0  0
  -21.2058   39.6597  -22.0081 O   0  0  0  0  0  0  0  0  0  0  0  0
  1  2  1  0
  2  3  2  0
  3  4  1  0
  4  5  1  0
  4  6  2  0
  6  7  1  0
  7  8  2  0
  8  9  1  0
  9 10  2  0
 10 11  1  0
 12 11  1  6
 12 13  1  0
 13 14  1  0
 14 15  1  6
 15 16  1  0
 14 17  1  0
 17 18  1  6
 17 19  1  0
 19 20  1  6
  8  2  1  0
 19 12  1  0
 11  7  1  0
M  END
$$$$
