
     RDKit          3D

 17 18  0  0  0  0  0  0  0  0999 V2000
  -20.7103   39.2938  -21.8606 Cl  0  0  0  0  0  0  0  0  0  0  0  0
  -17.8625   40.9422  -19.1142 C   0  0  0  0  0  0  0  0  0  0  0  0
  -19.2372   40.8995  -19.1433 C   0  0  0  0  0  0  0  0  0  0  0  0
  -19.9051   40.7462  -20.3487 C   0  0  0  0  0  0  0  0  0  0  0  0
  -19.2263   40.6346  -21.5251 C   0  0  0  0  0  0  0  0  0  0  0  0
  -19.9278   40.4897  -22.7002 C   0  0  0  0  0  0  0  0  0  0  0  0
  -21.3975   40.4168  -22.7586 C   0  0  0  0  0  0  0  0  0  0  0  0
  -21.9388   39.0740  -22.3845 C   0  0  0  0  0  0  0  0  0  0  0  0
  -21.7802   37.9977  -23.1184 N   0  0  0  0  0  0  0  0  0  0  0  0
  -22.3947   36.8504  -22.5328 C   0  0  0  0  0  0  0  0  0  0  0  0
  -23.2352   37.3863  -21.4095 C   0  0  0  0  0  0  0  0  0  0  0  0
  -22.6805   38.7121  -21.2381 N   0  0  0  0  0  0  0  0  0  0  0  0
  -19.1591   40.3895  -23.8663 C   0  0  0  0  0  0  0  0  0  0  0  0
  -17.7866   40.4324  -23.8391 C   0  0  0  0  0  0  0  0  0  0  0  0
  -17.1172   40.5761  -22.6604 C   0  0  0  0  0  0  0  0  0  0  0  0
  -17.8458   40.6781  -21.4941 C   0  0  0  0  0  0  0  0  0  0  0  0
  -17.1757   40.8297  -20.3028 C   0  0  0  0  0  0  0  0  0  0  0  0
  2  3  2  0
  3  4  1  0
  4  5  2  0
  5  6  1  0
  6  7  1  0
  7  8  1  0
  8  9  2  0
  9 10  1  0
 10 11  1  0
 11 12  1  0
  6 13  2  0
 13 14  1  0
 14 15  2  0
 15 16  1  0
 16 17  2  0
 17  2  1  0
 16  5  1  0
 12  8  1  0
M  END
$$$$
