
     RDKit          3D

 29 27  0  0  0  0  0  0  0  0999 V2000
  -20.9411   19.0629  -32.6066 C   0  0  0  0  0  0  0  0  0  0  0  0
  -21.8500   17.8601  -32.6270 C   0  0  0  0  0  0  0  0  0  0  0  0
  -21.4337   16.8069  -31.7125 N   0  0  0  0  0  0  0  0  0  0  0  0
  -21.6116   17.2411  -30.3350 C   0  0  0  0  0  0  0  0  0  0  0  0
  -23.0753   17.3993  -29.9877 C   0  0  0  0  0  0  0  0  0  0  0  0
  -20.0242   16.5871  -32.0043 C   0  0  0  0  0  0  0  0  0  0  0  0
  -19.4389   15.5024  -31.1827 C   0  0  0  0  0  0  0  0  0  0  0  0
  -18.6291   15.7887  -30.0892 C   0  0  0  0  0  0  0  0  0  0  0  0
  -18.0766   14.7835  -29.3214 C   0  0  0  0  0  0  0  0  0  0  0  0
  -17.2660   15.1196  -28.1976 N   0  0  0  0  0  0  0  0  0  0  0  0
  -16.3343   14.1965  -27.6474 C   0  0  0  0  0  0  0  0  0  0  0  0
  -16.5191   13.7652  -26.3401 C   0  0  0  0  0  0  0  0  0  0  0  0
  -15.5644   12.8768  -25.8653 C   0  0  0  0  0  0  0  0  0  0  0  0
  -14.5384   12.4742  -26.6348 N   0  0  0  0  0  0  0  0  0  0  0  0
  -14.3499   12.8909  -27.9132 C   0  0  0  0  0  0  0  0  0  0  0  0
  -13.2950   12.4688  -28.6716 C   0  0  0  0  0  0  0  0  0  0  0  0
  -13.1702   12.9447  -29.9646 C   0  0  0  0  0  0  0  0  0  0  0  0
  -11.8108   12.3788  -30.8922 Cl  0  0  0  0  0  0  0  0  0  0  0  0
  -14.0619   13.8223  -30.5156 C   0  0  0  0  0  0  0  0  0  0  0  0
  -15.1308   14.2397  -29.7241 C   0  0  0  0  0  0  0  0  0  0  0  0
  -15.2872   13.7871  -28.4329 C   0  0  0  0  0  0  0  0  0  0  0  0
  -18.3099   13.4658  -29.6137 C   0  0  0  0  0  0  0  0  0  0  0  0
  -19.1132   13.1587  -30.6968 C   0  0  0  0  0  0  0  0  0  0  0  0
  -19.6621   14.1699  -31.4605 C   0  0  0  0  0  0  0  0  0  0  0  0
  -20.4594   13.8118  -32.5356 O   0  0  0  0  0  0  0  0  0  0  0  0
  -17.8913   15.0315  -29.8377 Cl  0  0  0  0  0  0  0  0  0  0  0  0
  -17.8876   15.0295  -29.8360 Cl  0  0  0  0  0  0  0  0  0  0  0  0
  -18.2325   15.5675  -30.2979 O   0  0  0  0  0  0  0  0  0  0  0  0
  -18.2283   15.5707  -30.3004 O   0  0  0  0  0  0  0  0  0  0  0  0
  1  2  1  0
  2  3  1  0
  3  4  1  0
  4  5  1  0
  3  6  1  0
  6  7  1  0
  7  8  2  0
  8  9  1  0
  9 10  1  0
 10 11  1  0
 11 12  2  0
 12 13  1  0
 13 14  2  0
 14 15  1  0
 15 16  2  0
 16 17  1  0
 17 18  1  0
 17 19  2  0
 19 20  1  0
 20 21  2  0
  9 22  2  0
 22 23  1  0
 23 24  2  0
 24 25  1  0
 24  7  1  0
 21 11  1  0
 21 15  1  0
M  END
$$$$
