
     RDKit          3D

 27 29  0  0  0  0  0  0  0  0999 V2000
  -22.2996   35.5694  -21.2221 C   0  0  0  0  0  0  0  0  0  0  0  0
  -21.3877   36.2706  -20.4188 O   0  0  0  0  0  0  0  0  0  0  0  0
  -20.2506   36.8025  -20.9815 C   0  0  0  0  0  0  0  0  0  0  0  0
  -19.7541   38.0177  -20.5289 C   0  0  0  0  0  0  0  0  0  0  0  0
  -18.6185   38.5825  -21.0678 C   0  0  0  0  0  0  0  0  0  0  0  0
  -18.0675   39.8811  -20.6257 C   0  0  0  0  0  0  0  0  0  0  0  0
  -18.5615   41.0476  -21.3972 C   0  0  1  0  0  0  0  0  0  0  0  0
  -19.9957   41.3528  -21.2850 C   0  0  0  0  0  0  0  0  0  0  0  0
  -20.9997   40.6505  -21.0160 O   0  0  0  0  0  0  0  0  0  0  0  0
  -20.1317   42.7288  -21.5555 O   0  0  0  0  0  0  0  0  0  0  0  0
  -18.8614   43.3506  -21.5786 C   0  0  0  0  0  0  0  0  0  0  0  0
  -17.9582   42.3621  -20.8717 C   0  0  2  0  0  0  0  0  0  0  0  0
  -16.5228   42.4970  -21.3211 C   0  0  0  0  0  0  0  0  0  0  0  0
  -15.7540   43.3827  -20.4113 C   0  0  0  0  0  0  0  0  0  0  0  0
  -15.4807   44.6952  -20.7716 C   0  0  0  0  0  0  0  0  0  0  0  0
  -14.7666   45.5285  -19.9339 C   0  0  0  0  0  0  0  0  0  0  0  0
  -14.2938   45.0890  -18.6999 C   0  0  0  0  0  0  0  0  0  0  0  0
  -13.5856   45.8977  -17.8570 O   0  0  0  0  0  0  0  0  0  0  0  0
  -12.7951   46.9829  -18.2352 C   0  0  0  0  0  0  0  0  0  0  0  0
  -14.5652   43.7862  -18.3425 C   0  0  0  0  0  0  0  0  0  0  0  0
  -14.0947   43.3472  -17.1136 O   0  0  0  0  0  0  0  0  0  0  0  0
  -14.4763   42.0596  -16.6709 C   0  0  0  0  0  0  0  0  0  0  0  0
  -15.2765   42.9663  -19.1841 C   0  0  0  0  0  0  0  0  0  0  0  0
  -17.9861   37.8799  -22.0894 C   0  0  0  0  0  0  0  0  0  0  0  0
  -18.4419   36.6769  -22.5665 C   0  0  0  0  0  0  0  0  0  0  0  0
  -19.5792   36.1434  -22.0048 C   0  0  0  0  0  0  0  0  0  0  0  0
  -20.0834   34.9301  -22.4496 O   0  0  0  0  0  0  0  0  0  0  0  0
  1  2  1  0
  2  3  1  0
  3  4  2  0
  4  5  1  0
  5  6  1  0
  7  6  1  1
  7  8  1  0
  8  9  2  0
  8 10  1  0
 10 11  1  0
 11 12  1  0
 12 13  1  6
 13 14  1  0
 14 15  2  0
 15 16  1  0
 16 17  2  0
 17 18  1  0
 18 19  1  0
 17 20  1  0
 20 21  1  0
 21 22  1  0
 20 23  2  0
  5 24  2  0
 24 25  1  0
 25 26  2  0
 26 27  1  0
 26  3  1  0
 12  7  1  0
 23 14  1  0
M  END
$$$$
