
     RDKit          3D

 19 21  0  0  0  0  0  0  0  0999 V2000
  -19.3660   39.2776  -22.8284 C   0  0  0  0  0  0  0  0  0  0  0  0
  -18.8550   40.1411  -21.7299 C   0  0  0  0  0  0  0  0  0  0  0  0
  -18.4215   41.4097  -21.9795 C   0  0  0  0  0  0  0  0  0  0  0  0
  -17.9451   42.2179  -20.9624 C   0  0  0  0  0  0  0  0  0  0  0  0
  -17.5373   43.4089  -21.1916 N   0  0  0  0  0  0  0  0  0  0  0  0
  -16.3415   43.9654  -20.6676 C   0  0  0  0  0  0  0  0  0  0  0  0
  -15.1374   43.2982  -20.6982 C   0  0  0  0  0  0  0  0  0  0  0  0
  -13.9729   43.8678  -20.1754 C   0  0  0  0  0  0  0  0  0  0  0  0
  -14.0145   45.1109  -19.6195 C   0  0  0  0  0  0  0  0  0  0  0  0
  -12.7801   45.7244  -19.0609 C   0  0  0  0  0  0  0  0  0  0  0  0
  -15.2079   45.8003  -19.5764 C   0  0  0  0  0  0  0  0  0  0  0  0
  -15.2705   47.1417  -18.9807 C   0  0  0  0  0  0  0  0  0  0  0  0
  -16.3687   45.2201  -20.1033 C   0  0  0  0  0  0  0  0  0  0  0  0
  -17.9045   41.7597  -19.7137 N   0  0  0  0  0  0  0  0  0  0  0  0
  -17.5114   42.2976  -18.5901 N   0  0  0  0  0  0  0  0  0  0  0  0
  -17.6925   41.3715  -17.6131 C   0  0  0  0  0  0  0  0  0  0  0  0
  -18.2026   40.2462  -18.1295 N   0  0  0  0  0  0  0  0  0  0  0  0
  -18.3322   40.5032  -19.4571 C   0  0  0  0  0  0  0  0  0  0  0  0
  -18.7976   39.7111  -20.4452 N   0  0  0  0  0  0  0  0  0  0  0  0
  1  2  1  0
  2  3  2  0
  3  4  1  0
  4  5  2  0
  5  6  1  0
  6  7  2  0
  7  8  1  0
  8  9  2  0
  9 10  1  0
  9 11  1  0
 11 12  1  0
 11 13  2  0
  4 14  1  0
 14 15  1  0
 15 16  2  0
 16 17  1  0
 17 18  2  0
 18 19  1  0
 19  2  1  0
 13  6  1  0
 18 14  1  0
M  END
$$$$
