
     RDKit          3D

 27 30  0  0  0  0  0  0  0  0999 V2000
  -32.9541   13.8410  -17.3712 O   0  0  0  0  0  0  0  0  0  0  0  0
  -32.8772   13.1226  -18.3988 C   0  0  0  0  0  0  0  0  0  0  0  0
  -33.5676   11.9206  -18.3889 O   0  0  0  0  0  0  0  0  0  0  0  0
  -32.0854   13.5591  -19.5449 C   0  0  0  0  0  0  0  0  0  0  0  0
  -32.0691   12.7959  -20.6921 C   0  0  0  0  0  0  0  0  0  0  0  0
  -31.3140   13.2168  -21.7778 C   0  0  0  0  0  0  0  0  0  0  0  0
  -30.5683   14.3813  -21.7605 C   0  0  0  0  0  0  0  0  0  0  0  0
  -29.8090   14.7280  -22.9637 C   0  0  0  0  0  0  0  0  0  0  0  0
  -28.4855   14.1664  -23.0124 N   0  0  0  0  0  0  0  0  0  0  0  0
  -28.3752   13.2026  -21.9425 C   0  0  0  0  0  0  0  0  0  0  0  0
  -26.9570   13.0491  -21.4362 C   0  0  0  0  0  0  0  0  0  0  0  0
  -26.0264   13.3034  -22.5717 C   0  0  0  0  0  0  0  0  0  0  0  0
  -24.6188   12.8482  -22.3224 C   0  0  0  0  0  0  0  0  0  0  0  0
  -23.7840   12.8385  -23.4832 N   0  0  0  0  0  0  0  0  0  0  0  0
  -22.4029   12.7418  -23.0216 C   0  0  2  0  0  0  0  0  0  0  0  0
  -22.0921   12.1628  -21.7023 C   0  0  0  0  0  0  0  0  0  0  0  0
  -22.0967   13.6509  -21.8321 C   0  0  1  0  0  0  0  0  0  0  0  0
  -20.8112   14.3937  -21.9171 C   0  0  0  0  0  0  0  0  0  0  0  0
  -20.2204   14.9015  -20.7793 C   0  0  0  0  0  0  0  0  0  0  0  0
  -19.0232   15.5914  -20.8707 C   0  0  0  0  0  0  0  0  0  0  0  0
  -18.3980   15.7877  -22.0773 C   0  0  0  0  0  0  0  0  0  0  0  0
  -18.9756   15.2881  -23.2118 C   0  0  0  0  0  0  0  0  0  0  0  0
  -20.1751   14.5968  -23.1210 C   0  0  0  0  0  0  0  0  0  0  0  0
  -26.1077   14.7637  -22.9362 C   0  0  0  0  0  0  0  0  0  0  0  0
  -27.5403   15.2517  -22.9011 C   0  0  0  0  0  0  0  0  0  0  0  0
  -30.5943   15.1328  -20.6086 C   0  0  0  0  0  0  0  0  0  0  0  0
  -31.3517   14.7066  -19.5256 C   0  0  0  0  0  0  0  0  0  0  0  0
  1  2  2  0
  2  3  1  0
  2  4  1  0
  4  5  2  0
  5  6  1  0
  6  7  2  0
  7  8  1  0
  8  9  1  0
  9 10  1  0
 10 11  1  0
 11 12  1  0
 12 13  1  0
 13 14  1  0
 15 14  1  1
 15 16  1  0
 16 17  1  0
 17 18  1  6
 18 19  2  0
 19 20  1  0
 20 21  2  0
 21 22  1  0
 22 23  2  0
 12 24  1  0
 24 25  1  0
  7 26  1  0
 26 27  2  0
 27  4  1  0
 25  9  1  0
 17 15  1  0
 23 18  1  0
M  END
$$$$
