
     RDKit          3D

 15 16  0  0  0  0  0  0  0  0999 V2000
  -20.4567   34.8280  -23.2691 C   0  0  0  0  0  0  0  0  0  0  0  0
  -19.9175   35.6357  -22.1362 C   0  0  0  0  0  0  0  0  0  0  0  0
  -19.4316   34.7245  -21.0246 C   0  0  0  0  0  0  0  0  0  0  0  0
  -18.8572   36.6254  -22.5493 C   0  0  2  0  0  0  0  0  0  0  0  0
  -17.7293   36.7059  -21.6190 C   0  0  0  0  0  0  0  0  0  0  0  0
  -17.8338   37.3554  -20.5660 O   0  0  0  0  0  0  0  0  0  0  0  0
  -16.5282   36.0492  -21.9157 O   0  0  0  0  0  0  0  0  0  0  0  0
  -19.4900   37.9150  -22.6852 N   0  0  0  0  0  0  0  0  0  0  0  0
  -19.9286   39.1739  -23.1774 C   0  0  0  0  0  0  0  0  0  0  0  0
  -19.6037   39.9109  -24.1378 O   0  0  0  0  0  0  0  0  0  0  0  0
  -20.9589   39.3486  -22.1248 C   0  0  0  0  0  0  0  0  0  0  0  0
  -20.2570   38.2000  -21.4594 C   0  0  1  0  0  0  0  0  0  0  0  0
  -21.1927   36.6762  -21.4064 S   0  0  0  0  0  6  0  0  0  0  0  0
  -22.3781   36.7742  -22.3128 O   0  0  0  0  0  0  0  0  0  0  0  0
  -21.5285   36.2620  -20.0317 O   0  0  0  0  0  0  0  0  0  0  0  0
  1  2  1  0
  2  3  1  0
  2  4  1  0
  4  5  1  1
  5  6  2  0
  5  7  1  0
  4  8  1  0
  8  9  1  0
  9 10  2  0
  9 11  1  0
 12 11  1  6
 12 13  1  0
 13 14  2  0
 13 15  2  0
 13  2  1  0
 12  8  1  0
M  END
$$$$
