
     RDKit          3D

 35 38  0  0  0  0  0  0  0  0999 V2000
  -22.1149   47.8294  -24.2705 C   0  0  0  0  0  0  0  0  0  0  0  0
  -22.5428   46.5892  -24.3512 C   0  0  0  0  0  0  0  0  0  0  0  0
  -21.6494   45.4608  -24.5572 C   0  0  0  0  0  0  0  0  0  0  0  0
  -20.8237   45.4646  -25.5102 O   0  0  0  0  0  0  0  0  0  0  0  0
  -21.6441   44.3134  -23.7281 N   0  0  0  0  0  0  0  0  0  0  0  0
  -20.8073   43.1774  -23.9208 C   0  0  0  0  0  0  0  0  0  0  0  0
  -19.7581   43.1853  -24.8251 C   0  0  0  0  0  0  0  0  0  0  0  0
  -18.9572   42.0577  -24.9836 C   0  0  0  0  0  0  0  0  0  0  0  0
  -19.1733   40.9056  -24.2574 C   0  0  0  0  0  0  0  0  0  0  0  0
  -20.2272   40.8772  -23.3393 C   0  0  0  0  0  0  0  0  0  0  0  0
  -20.4646   39.7442  -22.6002 O   0  0  0  0  0  0  0  0  0  0  0  0
  -19.5918   39.2942  -21.6293 C   0  0  0  0  0  0  0  0  0  0  0  0
  -19.0303   40.2595  -20.8691 N   0  0  0  0  0  0  0  0  0  0  0  0
  -18.1785   39.9204  -19.9118 C   0  0  0  0  0  0  0  0  0  0  0  0
  -17.6040   40.9445  -19.1134 N   0  0  0  0  0  0  0  0  0  0  0  0
  -17.8512   42.3173  -19.4768 C   0  0  0  0  0  0  0  0  0  0  0  0
  -18.9712   42.6742  -20.1900 C   0  0  0  0  0  0  0  0  0  0  0  0
  -19.2151   43.9855  -20.5316 C   0  0  0  0  0  0  0  0  0  0  0  0
  -18.3442   45.0199  -20.1751 C   0  0  0  0  0  0  0  0  0  0  0  0
  -18.6365   46.3632  -20.5330 N   0  0  0  0  0  0  0  0  0  0  0  0
  -17.7519   47.4632  -20.1168 C   0  0  0  0  0  0  0  0  0  0  0  0
  -17.8381   48.5500  -21.1659 C   0  0  0  0  0  0  0  0  0  0  0  0
  -17.9629   47.8818  -22.4547 N   0  0  0  0  0  0  0  0  0  0  0  0
  -17.6591   48.8282  -23.4816 C   0  0  0  0  0  0  0  0  0  0  0  0
  -19.3467   47.4360  -22.5924 C   0  0  0  0  0  0  0  0  0  0  0  0
  -19.7862   46.7684  -21.3013 C   0  0  0  0  0  0  0  0  0  0  0  0
  -17.2295   44.6454  -19.4628 C   0  0  0  0  0  0  0  0  0  0  0  0
  -16.9719   43.3152  -19.1102 C   0  0  0  0  0  0  0  0  0  0  0  0
  -15.8637   42.9261  -18.3995 O   0  0  0  0  0  0  0  0  0  0  0  0
  -14.8545   43.7159  -17.8724 C   0  0  0  0  0  0  0  0  0  0  0  0
  -17.8730   38.6376  -19.6950 N   0  0  0  0  0  0  0  0  0  0  0  0
  -18.3931   37.6336  -20.4110 C   0  0  0  0  0  0  0  0  0  0  0  0
  -19.2891   37.9701  -21.4196 C   0  0  0  0  0  0  0  0  0  0  0  0
  -20.0192   36.7207  -22.3981 Cl  0  0  0  0  0  0  0  0  0  0  0  0
  -21.0094   42.0195  -23.2046 C   0  0  0  0  0  0  0  0  0  0  0  0
  1  2  2  0
  2  3  1  0
  3  4  2  0
  3  5  1  0
  5  6  1  0
  6  7  2  0
  7  8  1  0
  8  9  2  0
  9 10  1  0
 10 11  1  0
 11 12  1  0
 12 13  2  0
 13 14  1  0
 14 15  1  0
 15 16  1  0
 16 17  2  0
 17 18  1  0
 18 19  2  0
 19 20  1  0
 20 21  1  0
 21 22  1  0
 22 23  1  0
 23 24  1  0
 23 25  1  0
 25 26  1  0
 19 27  1  0
 27 28  2  0
 28 29  1  0
 29 30  1  0
 14 31  2  0
 31 32  1  0
 32 33  2  0
 33 34  1  0
 10 35  2  0
 35  6  1  0
 33 12  1  0
 28 16  1  0
 26 20  1  0
M  END
$$$$
