
     RDKit          3D

 18 18  0  0  0  0  0  0  0  0999 V2000
  -15.9252   17.8230  -37.6311 Cl  0  0  0  0  0  0  0  0  0  0  0  0
  -15.9212   17.8244  -37.6340 Cl  0  0  0  0  0  0  0  0  0  0  0  0
  -12.3143   18.2368  -39.9220 C   0  0  0  0  0  0  0  0  0  0  0  0
  -12.0146   17.7174  -38.6783 C   0  0  0  0  0  0  0  0  0  0  0  0
  -12.9923   17.4829  -37.7342 C   0  0  0  0  0  0  0  0  0  0  0  0
  -14.3293   17.7658  -38.0081 C   0  0  0  0  0  0  0  0  0  0  0  0
  -15.2914   17.5381  -37.0869 N   0  0  0  0  0  0  0  0  0  0  0  0
  -16.6045   17.8100  -37.3405 C   0  0  0  0  0  0  0  0  0  0  0  0
  -17.6133   17.5718  -36.3766 N   0  0  0  0  0  0  0  0  0  0  0  0
  -18.9805   17.8931  -36.7204 C   0  0  0  0  0  0  0  0  0  0  0  0
  -19.8935   17.8606  -35.5178 C   0  0  0  0  0  0  0  0  0  0  0  0
  -19.7943   16.6156  -34.8285 N   0  0  0  0  0  0  0  0  0  0  0  0
  -18.4896   16.0421  -34.7461 C   0  0  0  0  0  0  0  0  0  0  0  0
  -17.3840   17.0257  -35.0596 C   0  0  0  0  0  0  0  0  0  0  0  0
  -16.8649   18.3266  -38.5906 C   0  0  0  0  0  0  0  0  0  0  0  0
  -15.9261   18.5684  -39.5403 C   0  0  0  0  0  0  0  0  0  0  0  0
  -14.6068   18.2824  -39.2522 C   0  0  0  0  0  0  0  0  0  0  0  0
  -13.6377   18.5156  -40.1900 C   0  0  0  0  0  0  0  0  0  0  0  0
  3  4  2  0
  4  5  1  0
  5  6  2  0
  6  7  1  0
  7  8  2  0
  8  9  1  0
  9 10  1  0
 10 11  1  0
 11 12  1  0
 12 13  1  0
 13 14  1  0
  8 15  1  0
 15 16  2  0
 16 17  1  0
 17 18  2  0
 18  3  1  0
 17  6  1  0
 14  9  1  0
M  END
$$$$
