
     RDKit          3D

 23 25  0  0  0  0  0  0  0  0999 V2000
  -16.2429   44.7277  -20.5516 C   0  0  0  0  0  0  0  0  0  0  0  0
  -17.2392   43.6273  -20.3582 C   0  0  0  0  0  0  0  0  0  0  0  0
  -17.7244   43.0737  -21.5544 O   0  0  0  0  0  0  0  0  0  0  0  0
  -18.1052   41.7552  -21.6767 C   0  0  0  0  0  0  0  0  0  0  0  0
  -18.8606   41.1533  -20.7259 C   0  0  0  0  0  0  0  0  0  0  0  0
  -19.2286   39.8323  -20.8699 C   0  0  0  0  0  0  0  0  0  0  0  0
  -18.8637   39.0651  -21.9551 C   0  0  0  0  0  0  0  0  0  0  0  0
  -19.2667   37.7145  -22.0552 N   0  0  0  0  0  0  0  0  0  0  0  0
  -20.4561   37.3142  -22.5262 C   0  0  0  0  0  0  0  0  0  0  0  0
  -21.5945   38.5888  -23.0579 S   0  0  0  0  0  0  0  0  0  0  0  0
  -23.1230   37.8741  -23.7119 C   0  0  0  0  0  0  0  0  0  0  0  0
  -23.3100   38.2776  -25.1645 C   0  0  0  0  0  0  0  0  0  0  0  0
  -24.2839   38.4806  -22.9390 C   0  0  0  0  0  0  0  0  0  0  0  0
  -20.8216   36.0293  -22.6146 N   0  0  0  0  0  0  0  0  0  0  0  0
  -19.9794   35.0045  -22.2176 C   0  0  0  0  0  0  0  0  0  0  0  0
  -18.7667   35.4133  -21.7364 C   0  0  0  0  0  0  0  0  0  0  0  0
  -18.4230   36.7434  -21.6597 C   0  0  0  0  0  0  0  0  0  0  0  0
  -17.2828   37.0374  -21.2038 O   0  0  0  0  0  0  0  0  0  0  0  0
  -17.8897   33.8997  -21.2657 S   0  0  0  0  0  0  0  0  0  0  0  0
  -19.4390   32.8942  -21.1161 C   0  0  0  0  0  0  0  0  0  0  0  0
  -20.1874   33.5415  -22.2532 C   0  0  0  0  0  0  0  0  0  0  0  0
  -18.0893   39.6857  -22.9283 C   0  0  0  0  0  0  0  0  0  0  0  0
  -17.7180   41.0054  -22.7903 C   0  0  0  0  0  0  0  0  0  0  0  0
  1  2  1  0
  2  3  1  0
  3  4  1  0
  4  5  2  0
  5  6  1  0
  6  7  2  0
  7  8  1  0
  8  9  1  0
  9 10  1  0
 10 11  1  0
 11 12  1  0
 11 13  1  0
  9 14  2  0
 14 15  1  0
 15 16  2  0
 16 17  1  0
 17 18  2  0
 16 19  1  0
 19 20  1  0
 20 21  1  0
  7 22  1  0
 22 23  2  0
 23  4  1  0
 17  8  1  0
 21 15  1  0
M  END
$$$$
