
     RDKit          3D

 23 24  0  0  0  0  0  0  0  0999 V2000
  -25.4881   12.9019  -19.8170 O   0  0  0  0  0  0  0  0  0  0  0  0
  -25.3407   11.9838  -20.6053 C   0  0  0  0  0  0  0  0  0  0  0  0
  -26.1134   10.7452  -20.3540 C   0  0  0  0  0  0  0  0  0  0  0  0
  -25.9671    9.6983  -21.3853 C   0  0  0  0  0  0  0  0  0  0  0  0
  -25.6886   10.1407  -22.7689 C   0  0  0  0  0  0  0  0  0  0  0  0
  -24.8945   11.3873  -22.8795 C   0  0  0  0  0  0  0  0  0  0  0  0
  -24.6180   11.7901  -24.0018 O   0  0  0  0  0  0  0  0  0  0  0  0
  -24.4173   12.1712  -21.7337 C   0  0  0  0  0  0  0  0  0  0  0  0
  -24.3103   13.6394  -22.0118 C   0  0  0  0  0  0  0  0  0  0  0  0
  -25.3890   14.2622  -22.1605 O   0  0  0  0  0  0  0  0  0  0  0  0
  -23.0488   14.3226  -22.1078 C   0  0  0  0  0  0  0  0  0  0  0  0
  -21.8578   13.5740  -22.1802 C   0  0  0  0  0  0  0  0  0  0  0  0
  -20.6192   14.1503  -22.3279 C   0  0  0  0  0  0  0  0  0  0  0  0
  -20.5106   15.5172  -22.4110 C   0  0  0  0  0  0  0  0  0  0  0  0
  -19.1638   16.1573  -22.5723 C   0  0  0  0  0  0  0  0  0  0  0  0
  -18.6932   15.7469  -23.8158 F   0  0  0  0  0  0  0  0  0  0  0  0
  -18.2870   15.7478  -21.5841 F   0  0  0  0  0  0  0  0  0  0  0  0
  -19.2682   17.5376  -22.5146 F   0  0  0  0  0  0  0  0  0  0  0  0
  -21.6412   16.2627  -22.3428 C   0  0  0  0  0  0  0  0  0  0  0  0
  -22.9250   15.6679  -22.1886 C   0  0  0  0  0  0  0  0  0  0  0  0
  -23.9945   16.5684  -22.1277 N   0  0  0  0  0  4  0  0  0  0  0  0
  -24.3572   17.3072  -23.0211 O   0  0  0  0  0  0  0  0  0  0  0  0
  -24.7714   16.5886  -20.9643 O   0  0  0  0  0  1  0  0  0  0  0  0
  1  2  2  0
  2  3  1  0
  3  4  1  0
  4  5  1  0
  5  6  1  0
  6  7  2  0
  6  8  1  0
  8  9  1  0
  9 10  2  0
  9 11  1  0
 11 12  2  0
 12 13  1  0
 13 14  2  0
 14 15  1  0
 15 16  1  0
 15 17  1  0
 15 18  1  0
 14 19  1  0
 19 20  2  0
 20 21  1  0
 21 22  2  0
 21 23  1  0
  8  2  1  0
 20 11  1  0
M  CHG  2  21   1  23  -1
M  END
$$$$
