
     RDKit          3D

 37 39  0  0  0  0  0  0  0  0999 V2000
  -15.2103   45.8525  -21.0763 C   0  0  0  0  0  0  0  0  0  0  0  0
  -15.7027   44.6445  -20.3283 C   0  0  0  0  0  0  0  0  0  0  0  0
  -16.9336   45.1050  -19.5364 C   0  0  0  0  0  0  0  0  0  0  0  0
  -14.6454   44.2569  -19.3143 C   0  0  0  0  0  0  0  0  0  0  0  0
  -16.0466   43.5551  -21.2127 N   0  0  0  0  0  0  0  0  0  0  0  0
  -17.2722   42.8477  -21.1289 C   0  0  0  0  0  0  0  0  0  0  0  0
  -18.1664   43.2528  -20.3345 O   0  0  0  0  0  0  0  0  0  0  0  0
  -17.5526   41.6956  -21.8982 N   0  0  0  0  0  0  0  0  0  0  0  0
  -18.9151   41.1178  -21.9696 C   0  0  2  0  0  0  0  0  0  0  0  0
  -18.8749   39.8708  -22.7415 C   0  0  0  0  0  0  0  0  0  0  0  0
  -19.0777   40.0027  -24.0094 O   0  0  0  0  0  0  0  0  0  0  0  0
  -18.6401   38.5674  -22.2854 N   0  0  0  0  0  0  0  0  0  0  0  0
  -18.7702   38.1618  -20.8702 C   0  0  0  0  0  0  0  0  0  0  0  0
  -18.2274   36.7845  -20.7518 C   0  0  1  0  0  0  0  0  0  0  0  0
  -17.6987   36.3747  -22.0824 C   0  0  1  0  0  0  0  0  0  0  0  0
  -18.3168   37.3787  -23.0043 C   0  0  1  0  0  0  0  0  0  0  0  0
  -19.5735   36.7114  -23.5214 C   0  0  0  0  0  0  0  0  0  0  0  0
  -19.4984   35.5070  -23.8155 O   0  0  0  0  0  0  0  0  0  0  0  0
  -20.7344   37.4757  -23.6383 N   0  0  0  0  0  0  0  0  0  0  0  0
  -22.0126   36.8586  -24.1847 C   0  0  0  0  0  0  0  0  0  0  0  0
  -22.5019   37.7838  -25.2091 C   0  0  0  0  0  0  0  0  0  0  0  0
  -23.4684   37.5250  -26.2418 C   0  0  0  0  0  0  0  0  0  0  0  0
  -23.2625   36.6602  -27.4234 C   0  0  0  0  0  0  0  0  0  0  0  0
  -24.0827   37.6409  -28.2472 C   0  0  0  0  0  0  0  0  0  0  0  0
  -23.8730   38.6554  -27.1587 C   0  0  0  0  0  0  0  0  0  0  0  0
  -22.8387   36.7250  -22.9789 C   0  0  0  0  0  0  0  0  0  0  0  0
  -22.8091   37.6802  -22.1143 O   0  0  0  0  0  0  0  0  0  0  0  0
  -23.6980   35.6170  -22.6270 C   0  0  0  0  0  0  0  0  0  0  0  0
  -24.4637   35.5502  -21.4451 N   0  0  0  0  0  0  0  0  0  0  0  0
  -23.7816   34.6426  -23.4104 O   0  0  0  0  0  0  0  0  0  0  0  0
  -16.7501   36.6578  -21.0150 C   0  0  0  0  0  0  0  0  0  0  0  0
  -16.1626   35.4007  -20.3439 C   0  0  0  0  0  0  0  0  0  0  0  0
  -15.8551   37.8493  -20.9402 C   0  0  0  0  0  0  0  0  0  0  0  0
  -19.7699   42.2035  -22.6098 C   0  0  0  0  0  0  0  0  0  0  0  0
  -21.1796   41.8329  -22.8962 C   0  0  0  0  0  0  0  0  0  0  0  0
  -19.8105   43.4337  -21.7037 C   0  0  0  0  0  0  0  0  0  0  0  0
  -19.0893   42.6664  -23.9051 C   0  0  0  0  0  0  0  0  0  0  0  0
  1  2  1  0
  2  3  1  0
  2  4  1  0
  2  5  1  0
  5  6  1  0
  6  7  2  0
  6  8  1  0
  9  8  1  6
  9 10  1  0
 10 11  2  0
 10 12  1  0
 12 13  1  0
 14 13  1  6
 14 15  1  0
 15 16  1  0
 16 17  1  1
 17 18  2  0
 17 19  1  0
 19 20  1  0
 20 21  1  0
 21 22  1  0
 22 23  1  0
 23 24  1  0
 24 25  1  0
 20 26  1  0
 26 27  2  0
 26 28  1  0
 28 29  1  0
 28 30  2  0
 15 31  1  1
 31 32  1  0
 31 33  1  0
  9 34  1  0
 34 35  1  0
 34 36  1  0
 34 37  1  0
 16 12  1  0
 25 22  1  0
 31 14  1  0
M  END
$$$$
