
     RDKit          3D

 27 29  0  0  0  0  0  0  0  0999 V2000
  -13.7664   12.6889  -25.5758 C   0  0  0  0  0  0  0  0  0  0  0  0
  -13.6998   12.0612  -26.8402 O   0  0  0  0  0  0  0  0  0  0  0  0
  -14.1006   12.7298  -27.9838 C   0  0  0  0  0  0  0  0  0  0  0  0
  -13.7505   14.0406  -28.2225 C   0  0  0  0  0  0  0  0  0  0  0  0
  -14.1451   14.7156  -29.3578 C   0  0  0  0  0  0  0  0  0  0  0  0
  -14.9307   14.0775  -30.3248 C   0  0  0  0  0  0  0  0  0  0  0  0
  -15.3342   14.8156  -31.5219 C   0  0  0  0  0  0  0  0  0  0  0  0
  -14.6405   14.7332  -32.5621 O   0  0  0  0  0  0  0  0  0  0  0  0
  -16.5203   15.6253  -31.4838 N   0  0  0  0  0  0  0  0  0  0  0  0
  -17.1811   15.9187  -30.2361 C   0  0  0  0  0  0  0  0  0  0  0  0
  -18.6590   15.8915  -30.2726 C   0  0  0  0  0  0  0  0  0  0  0  0
  -19.2567   16.1620  -31.5557 N   0  0  0  0  0  0  0  0  0  0  0  0
  -20.6270   16.6360  -31.5894 C   0  0  0  0  0  0  0  0  0  0  0  0
  -21.2910   16.6487  -30.4985 O   0  0  0  0  0  0  0  0  0  0  0  0
  -21.2100   17.0762  -32.8347 C   0  0  0  0  0  0  0  0  0  0  0  0
  -22.0133   18.1308  -32.9068 C   0  0  0  0  0  0  0  0  0  0  0  0
  -22.6032   18.6562  -34.1318 C   0  0  0  0  0  0  0  0  0  0  0  0
  -23.6100   19.5798  -34.1183 C   0  0  0  0  0  0  0  0  0  0  0  0
  -24.1385   20.0436  -35.2923 C   0  0  0  0  0  0  0  0  0  0  0  0
  -23.7071   19.6260  -36.5321 C   0  0  0  0  0  0  0  0  0  0  0  0
  -24.4709   20.2965  -38.1451 Br  0  0  0  0  0  0  0  0  0  0  0  0
  -22.6827   18.6866  -36.5575 C   0  0  0  0  0  0  0  0  0  0  0  0
  -22.1613   18.2291  -35.3732 C   0  0  0  0  0  0  0  0  0  0  0  0
  -18.5703   15.9894  -32.7971 C   0  0  0  0  0  0  0  0  0  0  0  0
  -17.0845   16.1795  -32.6830 C   0  0  0  0  0  0  0  0  0  0  0  0
  -15.2784   12.7682  -30.0827 C   0  0  0  0  0  0  0  0  0  0  0  0
  -14.8739   12.1102  -28.9410 C   0  0  0  0  0  0  0  0  0  0  0  0
  1  2  1  0
  2  3  1  0
  3  4  2  0
  4  5  1  0
  5  6  2  0
  6  7  1  0
  7  8  2  0
  7  9  1  0
  9 10  1  0
 10 11  1  0
 11 12  1  0
 12 13  1  0
 13 14  2  0
 13 15  1  0
 15 16  2  0
 16 17  1  0
 17 18  2  0
 18 19  1  0
 19 20  2  0
 20 21  1  0
 20 22  1  0
 22 23  2  0
 12 24  1  0
 24 25  1  0
  6 26  1  0
 26 27  2  0
 27  3  1  0
 25  9  1  0
 23 17  1  0
M  END
$$$$
