
     RDKit          3D

 28 30  0  0  0  0  0  0  0  0999 V2000
  -16.9094   -4.4307  -24.7150 Cl  0  0  0  0  0  0  0  0  0  0  0  0
  -19.7366   -1.8248  -22.2105 N   0  0  0  0  0  0  0  0  0  0  0  0
  -18.7059   -2.2173  -22.6521 C   0  0  0  0  0  0  0  0  0  0  0  0
  -17.4551   -2.6731  -23.1681 C   0  0  0  0  0  0  0  0  0  0  0  0
  -17.2878   -4.0351  -23.4925 C   0  0  0  0  0  0  0  0  0  0  0  0
  -18.4663   -4.8996  -23.2793 C   0  0  0  0  0  0  0  0  0  0  0  0
  -18.2017   -6.3585  -23.1279 C   0  0  0  0  0  0  0  0  0  0  0  0
  -19.1905   -7.1310  -23.9966 C   0  0  0  0  0  0  0  0  0  0  0  0
  -20.5610   -6.8417  -23.6802 N   0  0  0  0  0  0  0  0  0  0  0  0
  -20.7996   -5.3980  -23.6900 C   0  0  0  0  0  0  0  0  0  0  0  0
  -19.5938   -4.6678  -24.2472 C   0  0  0  0  0  0  0  0  0  0  0  0
  -16.0733   -4.4212  -23.9475 C   0  0  0  0  0  0  0  0  0  0  0  0
  -14.9874   -3.5589  -24.1120 C   0  0  0  0  0  0  0  0  0  0  0  0
  -13.7018   -4.0634  -24.5860 C   0  0  0  0  0  0  0  0  0  0  0  0
  -12.6627   -4.2901  -23.7114 C   0  0  0  0  0  0  0  0  0  0  0  0
  -12.8292   -4.0006  -22.3629 O   0  0  0  0  0  0  0  0  0  0  0  0
  -11.4574   -4.7974  -24.1256 C   0  0  0  0  0  0  0  0  0  0  0  0
  -11.2605   -5.0967  -25.4534 C   0  0  0  0  0  0  0  0  0  0  0  0
  -12.2911   -4.8736  -26.3324 C   0  0  0  0  0  0  0  0  0  0  0  0
  -13.5395   -4.3558  -25.9500 C   0  0  0  0  0  0  0  0  0  0  0  0
  -14.5184   -4.1414  -26.7663 O   0  0  0  0  0  0  0  0  0  0  0  0
  -15.3405   -4.0178  -27.7595 C   0  0  0  0  0  0  0  0  0  0  0  0
  -15.7184   -5.3400  -28.4494 C   0  0  0  0  0  0  0  0  0  0  0  0
  -14.5983   -6.0690  -29.0409 C   0  0  0  0  0  0  0  0  0  0  0  0
  -15.6190   -5.4488  -29.9344 C   0  0  0  0  0  0  0  0  0  0  0  0
  -15.1893   -2.2702  -23.7950 N   0  0  0  0  0  0  0  0  0  0  0  0
  -16.3813   -1.8256  -23.3355 C   0  0  0  0  0  0  0  0  0  0  0  0
  -16.5760   -0.4481  -23.0174 N   0  0  0  0  0  0  0  0  0  0  0  0
  2  3  3  0
  3  4  1  0
  4  5  2  0
  5  6  1  0
  6  7  1  0
  7  8  1  0
  8  9  1  0
  9 10  1  0
 10 11  1  0
  5 12  1  0
 12 13  2  0
 13 14  1  0
 14 15  2  0
 15 16  1  0
 15 17  1  0
 17 18  2  0
 18 19  1  0
 19 20  2  0
 20 21  1  0
 21 22  1  0
 22 23  1  0
 23 24  1  0
 24 25  1  0
 13 26  1  0
 26 27  2  0
 27 28  1  0
 27  4  1  0
 11  6  1  0
 20 14  1  0
 25 23  1  0
M  END
$$$$
