
     RDKit          3D

 27 28  0  0  0  0  0  0  0  0999 V2000
  -31.7914    7.5396  -22.9327 C   0  0  0  0  0  0  0  0  0  0  0  0
  -32.6730    8.7419  -22.6699 C   0  0  0  0  0  0  0  0  0  0  0  0
  -32.4999    9.1364  -21.3175 O   0  0  0  0  0  0  0  0  0  0  0  0
  -33.0356   10.2655  -20.7717 C   0  0  0  0  0  0  0  0  0  0  0  0
  -33.6774   11.0028  -21.6152 O   0  0  0  0  0  0  0  0  0  0  0  0
  -32.9806   10.7302  -19.4145 C   0  0  0  0  0  0  0  0  0  0  0  0
  -34.1273   10.6931  -18.6051 C   0  0  0  0  0  0  0  0  0  0  0  0
  -34.0896   11.1364  -17.3006 C   0  0  0  0  0  0  0  0  0  0  0  0
  -32.9226   11.6269  -16.7606 C   0  0  0  0  0  0  0  0  0  0  0  0
  -31.8015   11.6625  -17.5538 C   0  0  0  0  0  0  0  0  0  0  0  0
  -31.8349   11.2141  -18.8770 C   0  0  0  0  0  0  0  0  0  0  0  0
  -30.3717   11.2937  -19.8095 S   0  0  0  0  0  6  0  0  0  0  0  0
  -30.0672    9.9537  -20.4809 O   0  0  0  0  0  0  0  0  0  0  0  0
  -29.1706   11.6481  -18.9695 O   0  0  0  0  0  0  0  0  0  0  0  0
  -30.6043   12.5031  -21.0218 N   0  0  0  0  0  0  0  0  0  0  0  0
  -29.5769   13.3953  -21.3161 C   0  0  0  0  0  0  0  0  0  0  0  0
  -29.0813   13.4028  -22.4785 O   0  0  0  0  0  0  0  0  0  0  0  0
  -29.0403   14.3214  -20.3592 N   0  0  0  0  0  0  0  0  0  0  0  0
  -28.3372   15.4735  -20.7895 C   0  0  0  0  0  0  0  0  0  0  0  0
  -27.8868   16.4006  -19.8941 N   0  0  0  0  0  0  0  0  0  0  0  0
  -27.2183   17.5014  -20.2702 C   0  0  0  0  0  0  0  0  0  0  0  0
  -26.6414   18.6894  -19.1207 Cl  0  0  0  0  0  0  0  0  0  0  0  0
  -26.9632   17.7287  -21.6060 C   0  0  0  0  0  0  0  0  0  0  0  0
  -27.4131   16.7984  -22.5263 C   0  0  0  0  0  0  0  0  0  0  0  0
  -27.1559   17.0278  -23.8711 O   0  0  0  0  0  0  0  0  0  0  0  0
  -26.5521   18.2566  -24.2383 C   0  0  0  0  0  0  0  0  0  0  0  0
  -28.0762   15.7176  -22.0856 N   0  0  0  0  0  0  0  0  0  0  0  0
  1  2  1  0
  2  3  1  0
  3  4  1  0
  4  5  2  0
  4  6  1  0
  6  7  2  0
  7  8  1  0
  8  9  2  0
  9 10  1  0
 10 11  2  0
 11 12  1  0
 12 13  2  0
 12 14  2  0
 12 15  1  0
 15 16  1  0
 16 17  2  0
 16 18  1  0
 18 19  1  0
 19 20  2  0
 20 21  1  0
 21 22  1  0
 21 23  2  0
 23 24  1  0
 24 25  1  0
 25 26  1  0
 24 27  2  0
 11  6  1  0
 27 19  1  0
M  END
$$$$
