
     RDKit          3D

 27 28  0  0  0  0  0  0  0  0999 V2000
  -17.9010   41.1726  -25.9782 C   0  0  0  0  0  0  0  0  0  0  0  0
  -18.7926   41.1290  -24.8887 O   0  0  0  0  0  0  0  0  0  0  0  0
  -18.2980   41.0246  -23.5971 C   0  0  0  0  0  0  0  0  0  0  0  0
  -17.0591   40.9792  -23.4654 O   0  0  0  0  0  0  0  0  0  0  0  0
  -19.2516   40.9746  -22.4803 C   0  0  0  0  0  0  0  0  0  0  0  0
  -20.2451   41.9496  -22.3739 C   0  0  0  0  0  0  0  0  0  0  0  0
  -21.1493   41.9482  -21.3400 C   0  0  0  0  0  0  0  0  0  0  0  0
  -21.1233   40.9881  -20.3574 C   0  0  0  0  0  0  0  0  0  0  0  0
  -20.1474   40.0225  -20.4540 C   0  0  0  0  0  0  0  0  0  0  0  0
  -19.2172   40.0078  -21.5011 C   0  0  0  0  0  0  0  0  0  0  0  0
  -18.0125   38.7517  -21.5826 S   0  0  0  0  0  6  0  0  0  0  0  0
  -17.1642   38.8312  -20.3207 O   0  0  0  0  0  0  0  0  0  0  0  0
  -17.0476   38.9678  -22.7217 O   0  0  0  0  0  0  0  0  0  0  0  0
  -18.7215   37.1818  -21.6204 N   0  0  0  0  0  0  0  0  0  0  0  0
  -19.9637   36.9836  -22.2735 C   0  0  0  0  0  0  0  0  0  0  0  0
  -20.4841   37.9774  -22.8299 O   0  0  0  0  0  0  0  0  0  0  0  0
  -20.6229   35.7291  -22.3182 N   0  0  0  0  0  0  0  0  0  0  0  0
  -21.9549   35.5577  -22.8581 C   0  0  0  0  0  0  0  0  0  0  0  0
  -19.9581   34.5818  -21.8141 C   0  0  0  0  0  0  0  0  0  0  0  0
  -20.5459   33.3910  -21.9468 N   0  0  0  0  0  0  0  0  0  0  0  0
  -19.9971   32.2381  -21.5014 C   0  0  0  0  0  0  0  0  0  0  0  0
  -20.7116   30.9439  -21.6844 C   0  0  0  0  0  0  0  0  0  0  0  0
  -18.7933   32.3176  -20.8949 N   0  0  0  0  0  0  0  0  0  0  0  0
  -18.1665   33.4954  -20.7404 C   0  0  0  0  0  0  0  0  0  0  0  0
  -16.9338   33.5574  -20.1165 O   0  0  0  0  0  0  0  0  0  0  0  0
  -16.2329   34.7699  -20.0603 C   0  0  0  0  0  0  0  0  0  0  0  0
  -18.7594   34.6257  -21.2051 N   0  0  0  0  0  0  0  0  0  0  0  0
  1  2  1  0
  2  3  1  0
  3  4  2  0
  3  5  1  0
  5  6  2  0
  6  7  1  0
  7  8  2  0
  8  9  1  0
  9 10  2  0
 10 11  1  0
 11 12  2  0
 11 13  2  0
 11 14  1  0
 14 15  1  0
 15 16  2  0
 15 17  1  0
 17 18  1  0
 17 19  1  0
 19 20  2  0
 20 21  1  0
 21 22  1  0
 21 23  2  0
 23 24  1  0
 24 25  1  0
 25 26  1  0
 24 27  2  0
 10  5  1  0
 27 19  1  0
M  END
$$$$
