
     RDKit          3D

 25 26  0  0  0  0  0  0  0  0999 V2000
    6.2775   20.9160  -16.0831 C   0  0  0  0  0  0  0  0  0  0  0  0
    6.1528   21.2022  -17.5429 C   0  0  0  0  0  0  0  0  0  0  0  0
    4.8769   20.8845  -18.0628 O   0  0  0  0  0  0  0  0  0  0  0  0
    4.4212   21.3902  -19.2695 C   0  0  0  0  0  0  0  0  0  0  0  0
    5.1351   22.3043  -19.7881 O   0  0  0  0  0  0  0  0  0  0  0  0
    3.1892   20.9242  -19.9432 C   0  0  2  0  0  0  0  0  0  0  0  0
    3.4944   19.8721  -20.9841 C   0  0  0  0  0  0  0  0  0  0  0  0
    2.2694   19.3142  -21.6183 C   0  0  0  0  0  0  0  0  0  0  0  0
    1.7284   18.1101  -21.2012 C   0  0  0  0  0  0  0  0  0  0  0  0
    0.5956   17.5755  -21.7770 C   0  0  0  0  0  0  0  0  0  0  0  0
   -0.0604   18.2179  -22.8049 C   0  0  0  0  0  0  0  0  0  0  0  0
   -1.2363   17.6683  -23.4064 N   0  0  0  0  0  4  0  0  0  0  0  0
   -1.7815   18.2476  -24.3631 O   0  0  0  0  0  0  0  0  0  0  0  0
   -1.8000   16.5011  -22.9603 O   0  0  0  0  0  1  0  0  0  0  0  0
    0.4732   19.4167  -23.2246 C   0  0  0  0  0  0  0  0  0  0  0  0
    1.6070   19.9509  -22.6476 C   0  0  0  0  0  0  0  0  0  0  0  0
    2.5046   22.0627  -20.5076 N   0  0  0  0  0  0  0  0  0  0  0  0
    2.6135   23.3453  -19.9405 C   0  0  0  0  0  0  0  0  0  0  0  0
    3.3451   23.4331  -18.8962 O   0  0  0  0  0  0  0  0  0  0  0  0
    1.9763   24.5331  -20.4401 C   0  0  0  0  0  0  0  0  0  0  0  0
    1.7933   25.6158  -19.6124 C   0  0  0  0  0  0  0  0  0  0  0  0
    1.1807   26.7493  -20.1040 C   0  0  0  0  0  0  0  0  0  0  0  0
    0.7537   26.8022  -21.4121 C   0  0  0  0  0  0  0  0  0  0  0  0
    0.9286   25.7397  -22.2394 C   0  0  0  0  0  0  0  0  0  0  0  0
    1.5463   24.6009  -21.7384 C   0  0  0  0  0  0  0  0  0  0  0  0
  1  2  1  0
  2  3  1  0
  3  4  1  0
  4  5  2  0
  4  6  1  0
  6  7  1  6
  7  8  1  0
  8  9  2  0
  9 10  1  0
 10 11  2  0
 11 12  1  0
 12 13  2  0
 12 14  1  0
 11 15  1  0
 15 16  2  0
  6 17  1  0
 17 18  1  0
 18 19  2  0
 18 20  1  0
 20 21  2  0
 21 22  1  0
 22 23  2  0
 23 24  1  0
 24 25  2  0
 16  8  1  0
 25 20  1  0
M  CHG  2  12   1  14  -1
M  END
$$$$
