
     RDKit          3D

 34 37  0  0  0  0  0  0  0  0999 V2000
  -19.2538   41.0994  -28.1578 C   0  0  0  0  0  0  0  0  0  0  0  0
  -18.5993   42.6532  -27.5331 S   0  0  0  0  0  6  0  0  0  0  0  0
  -19.5697   43.7600  -27.8107 O   0  0  0  0  0  0  0  0  0  0  0  0
  -17.2798   42.8693  -28.1887 O   0  0  0  0  0  0  0  0  0  0  0  0
  -18.4364   42.4325  -25.7894 C   0  0  0  0  0  0  0  0  0  0  0  0
  -17.4132   43.0797  -25.1223 C   0  0  0  0  0  0  0  0  0  0  0  0
  -17.2675   42.9213  -23.7598 C   0  0  0  0  0  0  0  0  0  0  0  0
  -18.1395   42.1154  -23.0418 C   0  0  0  0  0  0  0  0  0  0  0  0
  -19.1755   41.4566  -23.6999 C   0  0  0  0  0  0  0  0  0  0  0  0
  -20.0971   40.5977  -22.9119 C   0  0  0  0  0  0  0  0  0  0  0  0
  -19.4868   39.3745  -22.4885 N   0  0  0  0  0  0  0  0  0  0  0  0
  -19.0953   39.2149  -21.1405 C   0  0  0  0  0  0  0  0  0  0  0  0
  -19.2459   40.2705  -20.2905 N   0  0  0  0  0  0  0  0  0  0  0  0
  -18.8667   40.1337  -18.9893 C   0  0  0  0  0  0  0  0  0  0  0  0
  -19.0594   41.2465  -18.1458 N   0  0  0  0  0  0  0  0  0  0  0  0
  -19.8626   42.3811  -18.4365 C   0  0  0  0  0  0  0  0  0  0  0  0
  -19.5225   43.1587  -19.5519 C   0  0  0  0  0  0  0  0  0  0  0  0
  -20.2497   44.2719  -19.8636 C   0  0  0  0  0  0  0  0  0  0  0  0
  -21.3270   44.6396  -19.0803 C   0  0  0  0  0  0  0  0  0  0  0  0
  -21.6588   43.8783  -17.9881 C   0  0  0  0  0  0  0  0  0  0  0  0
  -20.9257   42.7231  -17.6421 C   0  0  0  0  0  0  0  0  0  0  0  0
  -22.7913   44.2677  -17.1317 C   0  0  0  0  0  0  0  0  0  0  0  0
  -23.8441   45.0689  -17.8250 C   0  0  0  0  0  0  0  0  0  0  0  0
  -23.2183   46.1590  -18.6211 C   0  0  0  0  0  0  0  0  0  0  0  0
  -23.6551   47.3141  -18.5820 O   0  0  0  0  0  0  0  0  0  0  0  0
  -22.1025   45.8017  -19.4209 N   0  0  0  0  0  0  0  0  0  0  0  0
  -18.3575   38.9779  -18.5680 N   0  0  0  0  0  0  0  0  0  0  0  0
  -18.1826   37.9066  -19.3431 C   0  0  0  0  0  0  0  0  0  0  0  0
  -18.5670   38.0302  -20.6832 C   0  0  0  0  0  0  0  0  0  0  0  0
  -18.4185   36.9037  -21.6225 C   0  0  0  0  0  0  0  0  0  0  0  0
  -19.6503   36.4570  -22.0861 F   0  0  0  0  0  0  0  0  0  0  0  0
  -17.7863   35.8581  -20.9898 F   0  0  0  0  0  0  0  0  0  0  0  0
  -17.6294   37.3256  -22.6833 F   0  0  0  0  0  0  0  0  0  0  0  0
  -19.2782   41.6476  -25.0613 C   0  0  0  0  0  0  0  0  0  0  0  0
  1  2  1  0
  2  3  2  0
  2  4  2  0
  2  5  1  0
  5  6  2  0
  6  7  1  0
  7  8  2  0
  8  9  1  0
  9 10  1  0
 10 11  1  0
 11 12  1  0
 12 13  2  0
 13 14  1  0
 14 15  1  0
 15 16  1  0
 16 17  2  0
 17 18  1  0
 18 19  2  0
 19 20  1  0
 20 21  2  0
 20 22  1  0
 22 23  1  0
 23 24  1  0
 24 25  2  0
 24 26  1  0
 14 27  2  0
 27 28  1  0
 28 29  2  0
 29 30  1  0
 30 31  1  0
 30 32  1  0
 30 33  1  0
  9 34  2  0
 34  5  1  0
 29 12  1  0
 21 16  1  0
 26 19  1  0
M  END
$$$$
