
     RDKit          3D

 13 14  0  0  0  0  0  0  0  0999 V2000
  -19.1045   14.2298  -29.5708 O   0  0  0  0  0  0  0  0  0  0  0  0
  -18.1309   14.7717  -30.3870 C   0  0  0  0  0  0  0  0  0  0  0  0
  -16.8120   14.5926  -30.0298 C   0  0  0  0  0  0  0  0  0  0  0  0
  -16.3090   13.6282  -28.4582 Br  0  0  0  0  0  0  0  0  0  0  0  0
  -15.8537   15.1440  -30.8620 C   0  0  0  0  0  0  0  0  0  0  0  0
  -16.2112   15.8406  -31.9968 C   0  0  0  0  0  0  0  0  0  0  0  0
  -14.9158   16.6083  -33.1576 Br  0  0  0  0  0  0  0  0  0  0  0  0
  -17.5396   15.9935  -32.3125 C   0  0  0  0  0  0  0  0  0  0  0  0
  -17.9474   16.6931  -33.4549 C   0  0  0  0  0  0  0  0  0  0  0  0
  -19.2819   16.8403  -33.7617 C   0  0  0  0  0  0  0  0  0  0  0  0
  -20.2285   16.2886  -32.9286 C   0  0  0  0  0  0  0  0  0  0  0  0
  -19.8375   15.6170  -31.8320 N   0  0  0  0  0  0  0  0  0  0  0  0
  -18.5394   15.4636  -31.5170 C   0  0  0  0  0  0  0  0  0  0  0  0
  1  2  1  0
  2  3  2  0
  3  4  1  0
  3  5  1  0
  5  6  2  0
  6  7  1  0
  6  8  1  0
  8  9  2  0
  9 10  1  0
 10 11  2  0
 11 12  1  0
 12 13  2  0
 13  2  1  0
 13  8  1  0
M  END
$$$$
