
     RDKit          3D

 16 18  0  0  0  0  0  0  0  0999 V2000
  -19.1799   40.1271  -23.8729 C   0  0  0  0  0  0  0  0  0  0  0  0
  -19.0311   41.3846  -24.4046 C   0  0  0  0  0  0  0  0  0  0  0  0
  -18.4113   42.3810  -23.6876 C   0  0  0  0  0  0  0  0  0  0  0  0
  -17.9535   42.0839  -22.4444 C   0  0  0  0  0  0  0  0  0  0  0  0
  -17.2959   43.2269  -21.7431 C   0  0  0  0  0  0  0  0  0  0  0  0
  -17.1159   44.3656  -21.7881 N   0  0  0  0  0  0  0  0  0  0  0  0
  -16.4515   45.1535  -20.9743 C   0  0  0  0  0  0  0  0  0  0  0  0
  -15.8822   44.5800  -19.9186 C   0  0  0  0  0  0  0  0  0  0  0  0
  -15.0770   45.0323  -18.7881 C   0  0  0  0  0  0  0  0  0  0  0  0
  -14.9572   46.3415  -18.3662 C   0  0  0  0  0  0  0  0  0  0  0  0
  -14.1128   46.3295  -17.2800 C   0  0  0  0  0  0  0  0  0  0  0  0
  -13.7298   45.0667  -17.0443 N   0  0  0  0  0  0  0  0  0  0  0  0
  -14.3157   44.3126  -17.9539 N   0  0  0  0  0  0  0  0  0  0  0  0
  -16.3605   42.7915  -20.1540 S   0  0  0  0  0  0  0  0  0  0  0  0
  -18.0878   40.8393  -21.8887 C   0  0  0  0  0  0  0  0  0  0  0  0
  -18.7142   39.8421  -22.6201 C   0  0  0  0  0  0  0  0  0  0  0  0
  1  2  2  0
  2  3  1  0
  3  4  2  0
  4  5  1  0
  5  6  2  0
  6  7  1  0
  7  8  2  0
  8  9  1  0
  9 10  1  0
 10 11  2  0
 11 12  1  0
 12 13  1  0
  8 14  1  0
  4 15  1  0
 15 16  2  0
 16  1  1  0
 14  5  1  0
 13  9  2  0
M  END
$$$$
