
     RDKit          3D

 23 25  0  0  0  0  0  0  0  0999 V2000
  -31.7448   15.3255  -23.0721 C   0  0  0  0  0  0  0  0  0  0  0  0
  -30.5599   14.4511  -23.4121 C   0  0  0  0  0  0  0  0  0  0  0  0
  -29.5122   14.5064  -22.4350 N   0  0  0  0  0  0  0  0  0  0  0  0
  -28.5202   15.4199  -22.5265 C   0  0  0  0  0  0  0  0  0  0  0  0
  -27.5122   15.5177  -21.5995 C   0  0  0  0  0  0  0  0  0  0  0  0
  -26.4620   16.5202  -21.7398 C   0  0  0  0  0  0  0  0  0  0  0  0
  -25.6088   16.6989  -20.8388 O   0  0  0  0  0  0  0  0  0  0  0  0
  -26.3770   17.3017  -22.8688 O   0  0  0  0  0  0  0  0  0  0  0  0
  -27.4904   14.6590  -20.5224 C   0  0  0  0  0  0  0  0  0  0  0  0
  -26.5822   14.7109  -19.6419 O   0  0  0  0  0  0  0  0  0  0  0  0
  -28.5005   13.7268  -20.4277 C   0  0  0  0  0  0  0  0  0  0  0  0
  -28.4735   12.8701  -19.3597 C   0  0  0  0  0  0  0  0  0  0  0  0
  -29.4688   11.9250  -19.2470 C   0  0  0  0  0  0  0  0  0  0  0  0
  -29.3955   11.0861  -18.1858 F   0  0  0  0  0  0  0  0  0  0  0  0
  -30.4933   11.7924  -20.1500 C   0  0  0  0  0  0  0  0  0  0  0  0
  -31.5405   10.8683  -20.0674 N   0  0  0  0  0  0  0  0  0  0  0  0
  -31.2274    9.4467  -19.7902 C   0  0  0  0  0  0  0  0  0  0  0  0
  -32.4822    8.8389  -19.1389 C   0  0  0  0  0  0  0  0  0  0  0  0
  -32.9981    9.7877  -18.1919 N   0  0  0  0  0  0  0  0  0  0  0  0
  -33.6275   10.8722  -18.9111 C   0  0  0  0  0  0  0  0  0  0  0  0
  -32.9498   11.1200  -20.2452 C   0  0  0  0  0  0  0  0  0  0  0  0
  -30.4736   12.6942  -21.2243 C   0  0  0  0  0  0  0  0  0  0  0  0
  -29.5128   13.6603  -21.3980 C   0  0  0  0  0  0  0  0  0  0  0  0
  1  2  1  0
  2  3  1  0
  3  4  1  0
  4  5  2  0
  5  6  1  0
  6  7  2  0
  6  8  1  0
  5  9  1  0
  9 10  2  0
  9 11  1  0
 11 12  2  0
 12 13  1  0
 13 14  1  0
 13 15  2  0
 15 16  1  0
 16 17  1  0
 17 18  1  0
 18 19  1  0
 19 20  1  0
 20 21  1  0
 15 22  1  0
 22 23  2  0
 23  3  1  0
 23 11  1  0
 21 16  1  0
M  END
$$$$
