
     RDKit          3D

 32 34  0  0  0  0  0  0  0  0999 V2000
  -24.4397   37.5638  -20.1076 C   0  0  0  0  0  0  0  0  0  0  0  0
  -23.2955   37.2113  -21.0406 C   0  0  0  0  0  0  0  0  0  0  0  0
  -22.0672   37.0615  -20.3390 O   0  0  0  0  0  0  0  0  0  0  0  0
  -20.9264   36.5725  -20.9282 C   0  0  0  0  0  0  0  0  0  0  0  0
  -20.8325   35.2645  -21.4213 C   0  0  0  0  0  0  0  0  0  0  0  0
  -19.6893   34.7583  -22.0223 C   0  0  0  0  0  0  0  0  0  0  0  0
  -18.5863   35.5372  -22.1571 C   0  0  0  0  0  0  0  0  0  0  0  0
  -17.0484   35.1448  -22.8728 S   0  0  0  0  0  6  0  0  0  0  0  0
  -15.9680   35.9367  -22.2197 O   0  0  0  0  0  0  0  0  0  0  0  0
  -17.1930   35.8035  -24.3066 O   0  0  0  0  0  0  0  0  0  0  0  0
  -16.7750   33.5353  -23.0637 N   0  0  0  0  0  0  0  0  0  0  0  0
  -17.4232   32.6975  -23.9886 C   0  0  0  0  0  0  0  0  0  0  0  0
  -18.8828   32.4997  -23.8948 C   0  0  0  0  0  0  0  0  0  0  0  0
  -17.1720   33.2724  -25.4441 C   0  0  0  0  0  0  0  0  0  0  0  0
  -16.8321   31.2686  -24.0753 C   0  0  0  0  0  0  0  0  0  0  0  0
  -18.7198   36.8593  -21.6464 C   0  0  0  0  0  0  0  0  0  0  0  0
  -19.8193   37.3870  -21.0592 C   0  0  0  0  0  0  0  0  0  0  0  0
  -19.8189   38.7984  -20.6115 C   0  0  0  0  0  0  0  0  0  0  0  0
  -19.5870   39.8091  -21.4724 N   0  0  0  0  0  0  0  0  0  0  0  0
  -19.5309   41.1139  -21.0479 C   0  0  0  0  0  0  0  0  0  0  0  0
  -19.3051   42.3242  -21.6604 C   0  0  0  0  0  0  0  0  0  0  0  0
  -19.0373   42.5210  -23.1180 C   0  0  0  0  0  0  0  0  0  0  0  0
  -20.0269   41.7636  -23.9336 C   0  0  0  0  0  0  0  0  0  0  0  0
  -17.6311   42.1030  -23.4863 C   0  0  0  0  0  0  0  0  0  0  0  0
  -19.1987   44.0105  -23.4404 C   0  0  0  0  0  0  0  0  0  0  0  0
  -19.3606   43.2550  -20.7085 N   0  0  0  0  0  0  0  0  0  0  0  0
  -19.6019   42.7478  -19.5415 N   0  0  0  0  0  0  0  0  0  0  0  0
  -19.7535   43.4754  -18.2954 C   0  0  0  0  0  0  0  0  0  0  0  0
  -19.7109   41.4260  -19.7227 C   0  0  0  0  0  0  0  0  0  0  0  0
  -19.9475   40.3661  -18.8575 C   0  0  0  0  0  0  0  0  0  0  0  0
  -20.1150   40.6808  -17.6637 O   0  0  0  0  0  0  0  0  0  0  0  0
  -19.9970   39.0910  -19.3073 N   0  0  0  0  0  0  0  0  0  0  0  0
  1  2  1  0
  2  3  1  0
  3  4  1  0
  4  5  2  0
  5  6  1  0
  6  7  2  0
  7  8  1  0
  8  9  2  0
  8 10  2  0
  8 11  1  0
 11 12  1  0
 12 13  1  0
 12 14  1  0
 12 15  1  0
  7 16  1  0
 16 17  2  0
 17 18  1  0
 18 19  2  0
 19 20  1  0
 20 21  1  0
 21 22  1  0
 22 23  1  0
 22 24  1  0
 22 25  1  0
 21 26  2  0
 26 27  1  0
 27 28  1  0
 27 29  1  0
 29 30  1  0
 30 31  2  0
 30 32  1  0
 17  4  1  0
 32 18  1  0
 29 20  2  0
M  END
$$$$
