
     RDKit          3D

 29 31  0  0  0  0  0  0  0  0999 V2000
  -18.2498   16.1907  -34.1302 C   0  0  0  0  0  0  0  0  0  0  0  0
  -17.3571   16.4500  -35.2978 C   0  0  0  0  0  0  0  0  0  0  0  0
  -16.7485   17.6665  -35.4908 C   0  0  0  0  0  0  0  0  0  0  0  0
  -15.9549   17.8974  -36.5259 N   0  0  0  0  0  0  0  0  0  0  0  0
  -15.6595   16.9657  -37.4991 C   0  0  0  0  0  0  0  0  0  0  0  0
  -14.8016   17.3698  -38.5949 C   0  0  0  0  0  0  0  0  0  0  0  0
  -15.0930   18.1630  -39.6474 C   0  0  0  0  0  0  0  0  0  0  0  0
  -14.1908   18.4330  -40.6911 C   0  0  0  0  0  0  0  0  0  0  0  0
  -14.5449   19.2652  -41.7596 N   0  0  0  0  0  0  0  0  0  0  0  0
  -13.5170   19.7148  -42.6723 C   0  0  0  0  0  0  0  0  0  0  0  0
  -14.1075   19.5407  -44.0818 C   0  0  0  0  0  0  0  0  0  0  0  0
  -15.1298   20.5406  -44.1727 N   0  0  0  0  0  0  0  0  0  0  0  0
  -15.2304   21.3688  -45.3153 C   0  0  0  0  0  0  0  0  0  0  0  0
  -16.1937   22.2133  -45.4176 O   0  0  0  0  0  0  0  0  0  0  0  0
  -14.2452   21.2895  -46.4172 C   0  0  0  0  0  0  0  0  0  0  0  0
  -14.5320   22.1663  -47.5678 C   0  0  0  0  0  0  0  0  0  0  0  0
  -13.7046   23.7075  -47.5738 S   0  0  0  0  0  6  0  0  0  0  0  0
  -14.3300   24.7836  -46.2776 C   0  0  0  0  0  0  0  0  0  0  0  0
  -13.8500   24.4104  -48.8649 O   0  0  0  0  0  0  0  0  0  0  0  0
  -12.2294   23.5220  -47.2306 O   0  0  0  0  0  0  0  0  0  0  0  0
  -16.0565   20.6966  -43.0862 C   0  0  0  0  0  0  0  0  0  0  0  0
  -15.8941   19.6984  -41.9947 C   0  0  0  0  0  0  0  0  0  0  0  0
  -12.9764   17.8626  -40.6257 N   0  0  0  0  0  0  0  0  0  0  0  0
  -12.6065   17.0720  -39.6345 C   0  0  0  0  0  0  0  0  0  0  0  0
  -13.4970   16.8195  -38.6246 C   0  0  0  0  0  0  0  0  0  0  0  0
  -13.0152   15.7795  -37.3028 Cl  0  0  0  0  0  0  0  0  0  0  0  0
  -16.2527   15.7611  -37.3270 C   0  0  0  0  0  0  0  0  0  0  0  0
  -16.0940   14.6751  -38.3250 C   0  0  0  0  0  0  0  0  0  0  0  0
  -17.1009   15.4880  -36.2337 C   0  0  0  0  0  0  0  0  0  0  0  0
  1  2  1  0
  2  3  2  0
  3  4  1  0
  4  5  2  0
  5  6  1  0
  6  7  2  0
  7  8  1  0
  8  9  1  0
  9 10  1  0
 10 11  1  0
 11 12  1  0
 12 13  1  0
 13 14  2  0
 13 15  1  0
 15 16  1  0
 16 17  1  0
 17 18  1  0
 17 19  2  0
 17 20  2  0
 12 21  1  0
 21 22  1  0
  8 23  2  0
 23 24  1  0
 24 25  2  0
 25 26  1  0
  5 27  1  0
 27 28  1  0
 27 29  2  0
 29  2  1  0
 25  6  1  0
 22  9  1  0
M  END
$$$$
