
     RDKit          3D

 18 20  0  0  0  0  0  0  0  0999 V2000
  -19.2045   42.3141  -21.8272 N   0  0  0  0  0  0  0  0  0  0  0  0
  -19.6623   41.0554  -21.3873 C   0  0  0  0  0  0  0  0  0  0  0  0
  -20.2534   40.2410  -22.2943 N   0  0  0  0  0  0  0  0  0  0  0  0
  -20.6988   39.0355  -21.9013 C   0  0  0  0  0  0  0  0  0  0  0  0
  -20.5423   38.6774  -20.6179 N   0  0  0  0  0  0  0  0  0  0  0  0
  -19.9627   39.4474  -19.6767 C   0  0  0  0  0  0  0  0  0  0  0  0
  -19.5076   40.6770  -20.0744 C   0  0  0  0  0  0  0  0  0  0  0  0
  -18.9272   41.3014  -18.8648 C   0  0  0  0  0  0  0  0  0  0  0  0
  -17.4966   41.4889  -18.9974 N   0  0  0  0  0  0  0  0  0  0  0  0
  -16.9522   42.7839  -19.1454 C   0  0  0  0  0  0  0  0  0  0  0  0
  -17.7761   43.8911  -19.1354 C   0  0  0  0  0  0  0  0  0  0  0  0
  -17.3150   45.1782  -19.2741 C   0  0  0  0  0  0  0  0  0  0  0  0
  -15.9662   45.4017  -19.4326 C   0  0  0  0  0  0  0  0  0  0  0  0
  -15.5547   46.6831  -19.5656 F   0  0  0  0  0  0  0  0  0  0  0  0
  -15.1301   44.3205  -19.4456 C   0  0  0  0  0  0  0  0  0  0  0  0
  -15.6038   43.0229  -19.3049 C   0  0  0  0  0  0  0  0  0  0  0  0
  -19.1099   40.3238  -17.8252 N   0  0  0  0  0  0  0  0  0  0  0  0
  -19.6782   39.3218  -18.2987 N   0  0  0  0  0  0  0  0  0  0  0  0
  1  2  1  0
  2  3  2  0
  3  4  1  0
  4  5  2  0
  5  6  1  0
  6  7  2  0
  7  8  1  0
  8  9  1  0
  9 10  1  0
 10 11  2  0
 11 12  1  0
 12 13  2  0
 13 14  1  0
 13 15  1  0
 15 16  2  0
  8 17  1  0
 17 18  2  0
  7  2  1  0
 16 10  1  0
 18  6  1  0
M  END
$$$$
