
     RDKit          3D

 33 35  0  0  0  0  0  0  0  0999 V2000
  -21.2361   44.2416  -21.3137 C   0  0  0  0  0  0  0  0  0  0  0  0
  -20.3302   43.4724  -20.7592 C   0  0  0  0  0  0  0  0  0  0  0  0
  -19.2955   44.0981  -19.9285 C   0  0  0  0  0  0  0  0  0  0  0  0
  -19.2322   45.4743  -19.7239 C   0  0  0  0  0  0  0  0  0  0  0  0
  -18.2563   46.0693  -18.9369 C   0  0  0  0  0  0  0  0  0  0  0  0
  -17.2964   45.3076  -18.3176 C   0  0  0  0  0  0  0  0  0  0  0  0
  -17.3495   43.9600  -18.5117 C   0  0  0  0  0  0  0  0  0  0  0  0
  -16.3813   43.1786  -17.8885 O   0  0  0  0  0  0  0  0  0  0  0  0
  -18.3219   43.3669  -19.2959 C   0  0  0  0  0  0  0  0  0  0  0  0
  -18.3196   41.9187  -19.4656 C   0  0  0  0  0  0  0  0  0  0  0  0
  -17.4034   41.2599  -18.8597 O   0  0  0  0  0  0  0  0  0  0  0  0
  -19.3103   41.2819  -20.2804 C   0  0  0  0  0  0  0  0  0  0  0  0
  -19.2785   39.9827  -20.4781 C   0  0  0  0  0  0  0  0  0  0  0  0
  -18.3161   39.1554  -19.9269 O   0  0  0  0  0  0  0  0  0  0  0  0
  -20.3413   39.3858  -21.3490 C   0  0  2  0  0  0  0  0  0  0  0  0
  -21.5749   39.4165  -20.7079 O   0  0  0  0  0  0  0  0  0  0  0  0
  -20.0253   37.9420  -21.5538 C   0  0  0  0  0  0  0  0  0  0  0  0
  -20.7046   36.9974  -21.0888 O   0  0  0  0  0  0  0  0  0  0  0  0
  -18.8402   37.6470  -22.3526 C   0  0  0  0  0  0  0  0  0  0  0  0
  -18.0356   36.4679  -22.0854 C   0  0  0  0  0  0  0  0  0  0  0  0
  -18.3844   35.5841  -21.0490 N   0  0  0  0  0  0  0  0  0  0  0  0
  -17.0293   36.2595  -22.7974 O   0  0  0  0  0  0  0  0  0  0  0  0
  -18.5656   38.5023  -23.3168 C   0  0  0  0  0  0  0  0  0  0  0  0
  -17.4429   38.2482  -24.0917 O   0  0  0  0  0  0  0  0  0  0  0  0
  -19.3494   39.7145  -23.6534 C   0  0  1  0  0  0  0  0  0  0  0  0
  -19.8825   39.4667  -24.9747 N   0  0  0  0  0  0  0  0  0  0  0  0
  -20.6541   40.4977  -25.5535 C   0  0  0  0  0  0  0  0  0  0  0  0
  -20.3938   38.1440  -25.1458 C   0  0  0  0  0  0  0  0  0  0  0  0
  -20.3375   40.1493  -22.6397 C   0  0  2  0  0  0  0  0  0  0  0  0
  -20.2813   41.6488  -22.4031 C   0  0  1  0  0  0  0  0  0  0  0  0
  -21.1429   42.3459  -23.1929 O   0  0  0  0  0  0  0  0  0  0  0  0
  -20.4045   42.0119  -20.9623 C   0  0  2  0  0  0  0  0  0  0  0  0
  -19.2702   41.3863  -21.3812 Cl  0  0  0  0  0  0  0  0  0  0  0  0
  1  2  2  0
  2  3  1  0
  3  4  2  0
  4  5  1  0
  5  6  2  0
  6  7  1  0
  7  8  1  0
  7  9  2  0
  9 10  1  0
 10 11  2  0
 10 12  1  0
 12 13  2  0
 13 14  1  0
 13 15  1  0
 15 16  1  1
 15 17  1  0
 17 18  2  0
 17 19  1  0
 19 20  1  0
 20 21  1  0
 20 22  2  0
 19 23  2  0
 23 24  1  0
 23 25  1  0
 25 26  1  6
 26 27  1  0
 26 28  1  0
 29 25  1  6
 29 30  1  0
 30 31  1  6
 30 32  1  0
 32  2  1  6
  9  3  1  0
 32 12  1  0
 29 15  1  0
M  END
$$$$
