
     RDKit          3D

 39 43  0  0  0  0  0  0  0  0999 V2000
  -16.5687   17.5099  -35.4500 C   0  0  0  0  0  0  0  0  0  0  0  0
  -15.8616   17.1930  -36.7170 N   0  0  0  0  0  0  0  0  0  0  0  0
  -16.1781   17.9808  -37.8501 C   0  0  0  0  0  0  0  0  0  0  0  0
  -17.1487   18.8097  -37.6880 O   0  0  0  0  0  0  0  0  0  0  0  0
  -15.4682   17.8720  -39.1063 C   0  0  0  0  0  0  0  0  0  0  0  0
  -14.3931   16.9869  -39.2055 C   0  0  0  0  0  0  0  0  0  0  0  0
  -13.9174   16.2569  -38.1693 F   0  0  0  0  0  0  0  0  0  0  0  0
  -13.7467   16.7985  -40.4265 C   0  0  0  0  0  0  0  0  0  0  0  0
  -14.1524   17.4770  -41.5470 C   0  0  0  0  0  0  0  0  0  0  0  0
  -15.2061   18.3387  -41.4269 C   0  0  0  0  0  0  0  0  0  0  0  0
  -15.8829   18.5572  -40.2218 C   0  0  0  0  0  0  0  0  0  0  0  0
  -16.9683   19.4703  -40.2331 N   0  0  0  0  0  0  0  0  0  0  0  0
  -17.3843   20.0079  -41.5137 C   0  0  0  0  0  0  0  0  0  0  0  0
  -16.4637   20.3813  -42.4174 N   0  0  0  0  0  0  0  0  0  0  0  0
  -16.8459   20.9452  -43.6067 C   0  0  0  0  0  0  0  0  0  0  0  0
  -15.8572   21.3086  -44.5272 N   0  0  0  0  0  0  0  0  0  0  0  0
  -14.6044   20.7232  -44.7390 C   0  0  0  0  0  0  0  0  0  0  0  0
  -13.7872   20.3076  -43.7068 C   0  0  0  0  0  0  0  0  0  0  0  0
  -12.5626   19.7022  -43.8945 C   0  0  0  0  0  0  0  0  0  0  0  0
  -12.1135   19.4933  -45.1795 C   0  0  0  0  0  0  0  0  0  0  0  0
  -12.9037   19.8937  -46.2546 C   0  0  0  0  0  0  0  0  0  0  0  0
  -14.1231   20.4958  -46.0370 C   0  0  0  0  0  0  0  0  0  0  0  0
  -14.9170   20.8967  -47.0876 O   0  0  0  0  0  0  0  0  0  0  0  0
  -14.4611   20.8477  -48.4188 C   0  0  0  0  0  0  0  0  0  0  0  0
  -10.7811   18.8561  -45.0674 C   0  0  0  0  0  0  0  0  0  0  0  0
  -10.3422   19.2069  -43.6235 C   0  0  0  0  0  0  0  0  0  0  0  0
  -11.5975   19.1685  -42.9346 N   0  0  0  0  0  0  0  0  0  0  0  0
  -12.0065   18.7268  -41.6605 C   0  0  0  0  0  0  0  0  0  0  0  0
  -13.2497   18.7992  -41.3299 O   0  0  0  0  0  0  0  0  0  0  0  0
  -11.0469   18.1741  -40.6875 C   0  0  0  0  0  0  0  0  0  0  0  0
  -11.6235   17.6698  -39.4586 N   0  0  0  0  0  0  0  0  0  0  0  0
  -10.5167   17.3066  -38.5265 C   0  0  0  0  0  0  0  0  0  0  0  0
  -12.3290   16.3945  -39.7473 C   0  0  0  0  0  0  0  0  0  0  0  0
  -18.1621   21.0906  -43.8001 N   0  0  0  0  0  0  0  0  0  0  0  0
  -19.1124   20.7280  -42.9227 C   0  0  0  0  0  0  0  0  0  0  0  0
  -20.4544   20.7679  -42.8814 N   0  0  0  0  0  0  0  0  0  0  0  0
  -20.9104   20.2613  -41.7306 C   0  0  0  0  0  0  0  0  0  0  0  0
  -19.8685   19.8583  -40.9507 C   0  0  0  0  0  0  0  0  0  0  0  0
  -18.7321   20.1579  -41.7155 C   0  0  0  0  0  0  0  0  0  0  0  0
  1  2  1  0
  2  3  1  0
  3  4  2  0
  3  5  1  0
  5  6  2  0
  6  7  1  0
  6  8  1  0
  8  9  2  0
  9 10  1  0
 10 11  2  0
 11 12  1  0
 12 13  1  0
 13 14  2  0
 14 15  1  0
 15 16  1  0
 16 17  1  0
 17 18  2  0
 18 19  1  0
 19 20  2  0
 20 21  1  0
 21 22  2  0
 22 23  1  0
 23 24  1  0
 20 25  1  0
 25 26  1  0
 26 27  1  0
 27 28  1  0
 28 29  2  0
 28 30  1  0
 30 31  1  0
 31 32  1  0
 31 33  1  0
 15 34  2  0
 34 35  1  0
 35 36  1  0
 36 37  1  0
 37 38  2  0
 38 39  1  0
 11  5  1  0
 39 13  1  0
 22 17  1  0
 39 35  2  0
 27 19  1  0
M  END
$$$$
