
     RDKit          3D

 15 15  0  0  0  0  0  0  0  0999 V2000
  -17.6936   35.1509  -21.8550 C   0  0  0  0  0  0  0  0  0  0  0  0
  -19.0556   35.2828  -21.2198 C   0  0  0  0  0  0  0  0  0  0  0  0
  -19.1215   36.5478  -20.5937 O   0  0  0  0  0  0  0  0  0  0  0  0
  -19.4415   37.6451  -21.3455 C   0  0  0  0  0  0  0  0  0  0  0  0
  -19.5026   37.5300  -22.5930 O   0  0  0  0  0  0  0  0  0  0  0  0
  -19.7169   38.9648  -20.7492 C   0  0  2  0  0  0  0  0  0  0  0  0
  -21.0159   39.3849  -21.0880 O   0  0  0  0  0  0  0  0  0  0  0  0
  -18.7392   40.0280  -21.0806 C   0  0  0  0  0  0  0  0  0  0  0  0
  -19.0101   41.3922  -20.5562 C   0  0  0  0  0  0  0  0  0  0  0  0
  -17.8257   42.1092  -20.0597 C   0  0  0  0  0  0  0  0  0  0  0  0
  -17.0468   42.8438  -20.9611 C   0  0  0  0  0  0  0  0  0  0  0  0
  -15.9250   43.5325  -20.5730 C   0  0  0  0  0  0  0  0  0  0  0  0
  -15.5354   43.5131  -19.2574 C   0  0  0  0  0  0  0  0  0  0  0  0
  -16.2678   42.8097  -18.3524 C   0  0  0  0  0  0  0  0  0  0  0  0
  -17.4122   42.1096  -18.7603 C   0  0  0  0  0  0  0  0  0  0  0  0
  1  2  1  0
  2  3  1  0
  3  4  1  0
  4  5  2  0
  4  6  1  0
  6  7  1  6
  6  8  1  0
  8  9  1  0
  9 10  1  0
 10 11  2  0
 11 12  1  0
 12 13  2  0
 13 14  1  0
 14 15  2  0
 15 10  1  0
M  END
$$$$
