
     RDKit          3D

 43 45  0  0  0  0  0  0  0  0999 V2000
  -11.5707   -0.6728  -34.2645 C   0  0  0  0  0  0  0  0  0  0  0  0
  -11.9070    0.7582  -33.8236 C   0  0  0  0  0  0  0  0  0  0  0  0
  -11.0244    1.6823  -34.5551 C   0  0  0  0  0  0  0  0  0  0  0  0
  -10.1710    1.2682  -35.3812 O   0  0  0  0  0  0  0  0  0  0  0  0
  -11.1082    3.0530  -34.3530 O   0  0  0  0  0  1  0  0  0  0  0  0
  -11.5936    0.8442  -32.3649 C   0  0  0  0  0  0  0  0  0  0  0  0
  -12.5453    0.1495  -31.4580 C   0  0  0  0  0  0  0  0  0  0  0  0
  -13.9785    0.3662  -31.8140 C   0  0  0  0  0  0  0  0  0  0  0  0
  -14.2348    1.8776  -31.7151 C   0  0  0  0  0  0  0  0  0  0  0  0
  -14.9254   -0.2857  -30.8884 C   0  0  0  0  0  0  0  0  0  0  0  0
  -16.3405   -0.2441  -31.4447 C   0  0  0  0  0  0  0  0  0  0  0  0
  -16.3069   -1.0030  -32.7504 C   0  0  0  0  0  0  0  0  0  0  0  0
  -15.5640   -2.3135  -32.5641 C   0  0  0  0  0  0  0  0  0  0  0  0
  -15.5736   -0.0630  -33.6405 C   0  0  0  0  0  0  0  0  0  0  0  0
  -16.1777    0.6285  -34.5756 C   0  0  0  0  0  0  0  0  0  0  0  0
  -17.6340    0.5237  -34.8059 C   0  0  0  0  0  0  0  0  0  0  0  0
  -18.0724    0.9346  -35.8559 O   0  0  0  0  0  0  0  0  0  0  0  0
  -18.3771   -0.0851  -33.6938 C   0  0  0  0  0  0  0  0  0  0  0  0
  -19.8309   -0.1481  -33.7052 C   0  0  0  0  0  0  0  0  0  0  0  0
  -20.3058    0.2791  -32.2796 C   0  0  0  0  0  0  0  0  0  0  0  0
  -20.5260    0.8775  -34.5777 C   0  0  0  0  0  0  0  0  0  0  0  0
  -22.0286    0.5817  -34.3807 C   0  0  0  0  0  0  0  0  0  0  0  0
  -22.3105   -0.5163  -35.3818 C   0  0  0  0  0  0  0  0  0  0  0  0
  -23.6579   -0.8985  -35.2112 O   0  0  0  0  0  0  0  0  0  0  0  0
  -24.5973   -0.6746  -36.2076 C   0  0  0  0  0  0  0  0  0  0  0  0
  -24.1937   -0.1211  -37.2571 O   0  0  0  0  0  0  0  0  0  0  0  0
  -26.0229   -1.0488  -36.0958 C   0  0  0  0  0  0  0  0  0  0  0  0
  -26.7321   -0.6521  -37.3662 C   0  0  0  0  0  0  0  0  0  0  0  0
  -28.1546   -1.0030  -37.3060 C   0  0  0  0  0  0  0  0  0  0  0  0
  -28.6081   -1.5596  -36.2746 O   0  0  0  0  0  0  0  0  0  0  0  0
  -28.9990   -0.7279  -38.3702 O   0  0  0  0  0  1  0  0  0  0  0  0
  -21.3202   -1.6189  -35.1727 C   0  0  0  0  0  0  0  0  0  0  0  0
  -20.6258   -1.8980  -36.4581 C   0  0  0  0  0  0  0  0  0  0  0  0
  -22.2005   -2.8732  -34.9193 C   0  0  0  0  0  0  0  0  0  0  0  0
  -20.4923   -1.4782  -33.9458 C   0  0  0  0  0  0  0  0  0  0  0  0
  -19.5878   -2.6534  -33.7172 C   0  0  0  0  0  0  0  0  0  0  0  0
  -18.4693   -2.3138  -32.7212 C   0  0  0  0  0  0  0  0  0  0  0  0
  -17.5890   -1.3373  -33.3981 C   0  0  0  0  0  0  0  0  0  0  0  0
  -17.1709   -2.0255  -34.7181 C   0  0  0  0  0  0  0  0  0  0  0  0
  -14.1354    0.0100  -33.2825 C   0  0  0  0  0  0  0  0  0  0  0  0
  -13.3768    1.0419  -34.0906 C   0  0  0  0  0  0  0  0  0  0  0  0
  -18.1733   -0.5741  -33.9594 Na  0  0  0  0  0 15  0  0  0  0  0  0
  -18.1733   -0.5741  -33.9594 Na  0  0  0  0  0 15  0  0  0  0  0  0
  1  2  1  0
  2  3  1  0
  3  4  2  0
  3  5  1  0
  2  6  1  0
  6  7  1  0
  7  8  1  0
  8  9  1  0
  8 10  1  0
 10 11  1  0
 11 12  1  0
 12 13  1  0
 12 14  1  0
 14 15  2  0
 15 16  1  0
 16 17  2  0
 16 18  1  0
 18 19  1  0
 19 20  1  0
 19 21  1  0
 21 22  1  0
 22 23  1  0
 23 24  1  0
 24 25  1  0
 25 26  2  0
 25 27  1  0
 27 28  1  0
 28 29  1  0
 29 30  2  0
 29 31  1  0
 23 32  1  0
 32 33  1  0
 32 34  1  0
 32 35  1  0
 35 36  1  0
 36 37  1  0
 37 38  1  0
 38 39  1  0
 14 40  1  0
 40 41  1  0
 41  2  1  0
 40  8  1  0
 38 12  1  0
 38 18  1  0
 35 19  1  0
M  CHG  4   5  -1  31  -1  42   1  43   1
M  END
$$$$
