
     RDKit          3D

 12 12  0  0  0  0  0  0  0  0999 V2000
  -16.2618   37.5683  -21.4386 O   0  0  0  0  0  0  0  0  0  0  0  0
  -16.9854   38.2085  -22.1814 C   0  0  0  0  0  0  0  0  0  0  0  0
  -16.3319   39.2212  -22.9112 O   0  0  0  0  0  0  0  0  0  0  0  0
  -18.4073   37.9862  -22.3375 C   0  0  0  0  0  0  0  0  0  0  0  0
  -19.1090   38.9150  -23.1463 C   0  0  0  0  0  0  0  0  0  0  0  0
  -20.4509   38.8064  -23.3673 C   0  0  0  0  0  0  0  0  0  0  0  0
  -21.1106   37.7501  -22.7707 C   0  0  0  0  0  0  0  0  0  0  0  0
  -20.4546   36.8834  -22.0156 N   0  0  0  0  0  0  0  0  0  0  0  0
  -19.1006   36.9588  -21.7685 C   0  0  0  0  0  0  0  0  0  0  0  0
  -18.4969   35.9504  -20.9229 C   0  0  0  0  0  0  0  0  0  0  0  0
  -17.2976   36.2319  -20.5032 O   0  0  0  0  0  0  0  0  0  0  0  0
  -18.9773   34.7511  -20.4919 O   0  0  0  0  0  0  0  0  0  0  0  0
  1  2  2  0
  2  3  1  0
  2  4  1  0
  4  5  2  0
  5  6  1  0
  6  7  2  0
  7  8  1  0
  8  9  2  0
  9 10  1  0
 10 11  2  0
 10 12  1  0
  9  4  1  0
M  END
$$$$
