
     RDKit          3D

 35 37  0  0  0  0  0  0  0  0999 V2000
  -33.7713   10.5681  -18.0270 C   0  0  0  0  0  0  0  0  0  0  0  0
  -33.0256   10.9358  -19.1469 O   0  0  0  0  0  0  0  0  0  0  0  0
  -32.2507   12.0586  -19.2517 C   0  0  0  0  0  0  0  0  0  0  0  0
  -32.1012   12.9895  -18.2508 C   0  0  0  0  0  0  0  0  0  0  0  0
  -31.2970   14.0860  -18.4576 C   0  0  0  0  0  0  0  0  0  0  0  0
  -30.6216   14.2895  -19.6568 C   0  0  0  0  0  0  0  0  0  0  0  0
  -30.7705   13.3687  -20.6451 C   0  0  0  0  0  0  0  0  0  0  0  0
  -31.5713   12.2628  -20.4590 C   0  0  0  0  0  0  0  0  0  0  0  0
  -30.0393   13.5912  -21.9531 C   0  0  0  0  0  0  0  0  0  0  0  0
  -28.6423   13.1601  -21.8071 C   0  0  0  0  0  0  0  0  0  0  0  0
  -28.2499   12.9434  -20.5905 O   0  0  0  0  0  0  0  0  0  0  0  0
  -27.7030   12.9637  -22.8369 N   0  0  0  0  0  0  0  0  0  0  0  0
  -28.0955   12.9385  -24.2086 C   0  0  0  0  0  0  0  0  0  0  0  0
  -28.2600   11.5807  -24.7566 C   0  0  0  0  0  0  0  0  0  0  0  0
  -27.1874   10.9105  -25.3057 C   0  0  0  0  0  0  0  0  0  0  0  0
  -27.3779    9.6439  -25.8154 C   0  0  0  0  0  0  0  0  0  0  0  0
  -28.5954    9.0086  -25.8039 C   0  0  0  0  0  0  0  0  0  0  0  0
  -28.7600    7.7109  -26.3333 N   0  0  0  0  0  0  0  0  0  0  0  0
  -30.0440    7.0715  -26.3078 C   0  0  0  0  0  0  0  0  0  0  0  0
  -27.6292    7.0271  -26.9021 C   0  0  0  0  0  0  0  0  0  0  0  0
  -29.6677    9.6803  -25.2543 C   0  0  0  0  0  0  0  0  0  0  0  0
  -29.4802   10.9651  -24.7360 C   0  0  0  0  0  0  0  0  0  0  0  0
  -26.3339   12.7265  -22.4369 C   0  0  0  0  0  0  0  0  0  0  0  0
  -25.4607   13.7836  -22.2737 C   0  0  0  0  0  0  0  0  0  0  0  0
  -24.1477   13.5969  -21.8933 C   0  0  0  0  0  0  0  0  0  0  0  0
  -23.6669   12.3141  -21.6617 C   0  0  0  0  0  0  0  0  0  0  0  0
  -22.2774   12.0607  -21.2550 C   0  0  0  0  0  0  0  0  0  0  0  0
  -21.2780   12.5771  -22.2688 C   0  0  0  0  0  0  0  0  0  0  0  0
  -21.9726   12.7423  -19.9285 C   0  0  0  0  0  0  0  0  0  0  0  0
  -24.5208   11.2501  -21.8191 C   0  0  0  0  0  0  0  0  0  0  0  0
  -25.8317   11.4673  -22.2012 C   0  0  0  0  0  0  0  0  0  0  0  0
  -30.1438   15.0901  -22.2142 C   0  0  0  0  0  0  0  0  0  0  0  0
  -29.4566   15.8853  -21.1511 C   0  0  0  0  0  0  0  0  0  0  0  0
  -29.7916   15.4909  -19.7583 C   0  0  0  0  0  0  0  0  0  0  0  0
  -28.4248   12.2406  -21.8452 Cl  0  0  0  0  0  0  0  0  0  0  0  0
  1  2  1  0
  2  3  1  0
  3  4  2  0
  4  5  1  0
  5  6  2  0
  6  7  1  0
  7  8  2  0
  7  9  1  0
  9 10  1  0
 10 11  2  0
 10 12  1  0
 12 13  1  0
 13 14  1  0
 14 15  2  0
 15 16  1  0
 16 17  2  0
 17 18  1  0
 18 19  1  0
 18 20  1  0
 17 21  1  0
 21 22  2  0
 12 23  1  0
 23 24  2  0
 24 25  1  0
 25 26  2  0
 26 27  1  0
 27 28  1  0
 27 29  1  0
 26 30  1  0
 30 31  2  0
  9 32  1  0
 32 33  1  0
 33 34  1  0
  8  3  1  0
 22 14  1  0
 31 23  1  0
 34  6  1  0
M  END
$$$$
