
     RDKit          3D

 29 33  0  0  0  0  0  0  0  0999 V2000
  -22.2075   19.8960  -35.1723 O   0  0  0  0  0  0  0  0  0  0  0  0
  -21.6162   20.9457  -35.3876 C   0  0  0  0  0  0  0  0  0  0  0  0
  -20.2206   20.8077  -35.5588 O   0  0  0  0  0  0  0  0  0  0  0  0
  -22.2080   22.2288  -35.4731 C   0  0  0  0  0  0  0  0  0  0  0  0
  -21.9167   23.1191  -34.4247 C   0  0  0  0  0  0  0  0  0  0  0  0
  -22.4749   24.3537  -34.3981 C   0  0  0  0  0  0  0  0  0  0  0  0
  -23.3188   24.7272  -35.3915 C   0  0  0  0  0  0  0  0  0  0  0  0
  -23.9078   26.0612  -35.3417 C   0  0  0  0  0  0  0  0  0  0  0  0
  -23.3461   27.2331  -34.8345 C   0  0  0  0  0  0  0  0  0  0  0  0
  -24.2054   28.2432  -34.9774 N   0  0  0  0  0  0  0  0  0  0  0  0
  -25.3276   27.7985  -35.5623 C   0  0  0  0  0  0  0  0  0  0  0  0
  -26.4663   28.4334  -35.9092 N   0  0  0  0  0  0  0  0  0  0  0  0
  -27.4905   27.8107  -36.4904 C   0  0  0  0  0  0  0  0  0  0  0  0
  -27.3634   26.4530  -36.7420 C   0  0  0  0  0  0  0  0  0  0  0  0
  -28.4756   25.7544  -37.3772 C   0  0  0  0  0  0  0  0  0  0  0  0
  -28.7594   24.4389  -37.0443 C   0  0  0  0  0  0  0  0  0  0  0  0
  -29.7880   23.7485  -37.6124 C   0  0  0  0  0  0  0  0  0  0  0  0
  -30.5800   24.3650  -38.5497 C   0  0  0  0  0  0  0  0  0  0  0  0
  -30.3418   25.6717  -38.9172 C   0  0  0  0  0  0  0  0  0  0  0  0
  -29.2872   26.3547  -38.3239 C   0  0  0  0  0  0  0  0  0  0  0  0
  -26.1959   25.7636  -36.3951 C   0  0  0  0  0  0  0  0  0  0  0  0
  -25.1593   26.4327  -35.7981 C   0  0  0  0  0  0  0  0  0  0  0  0
  -23.5880   23.8521  -36.3986 C   0  0  0  0  0  0  0  0  0  0  0  0
  -23.0560   22.5546  -36.5092 C   0  0  0  0  0  0  0  0  0  0  0  0
  -23.4046   21.7597  -37.6511 C   0  0  0  0  0  0  0  0  0  0  0  0
  -23.9416   22.4163  -38.8679 C   0  0  0  0  0  0  0  0  0  0  0  0
  -24.6685   21.2679  -39.5911 C   0  0  0  0  0  0  0  0  0  0  0  0
  -23.9677   20.0126  -39.0242 C   0  0  0  0  0  0  0  0  0  0  0  0
  -24.0789   20.4534  -37.5266 C   0  0  0  0  0  0  0  0  0  0  0  0
  1  2  2  0
  2  3  1  0
  2  4  1  0
  4  5  2  0
  5  6  1  0
  6  7  2  0
  7  8  1  0
  8  9  2  0
  9 10  1  0
 10 11  1  0
 11 12  2  0
 12 13  1  0
 13 14  2  0
 14 15  1  0
 15 16  2  0
 16 17  1  0
 17 18  2  0
 18 19  1  0
 19 20  2  0
 14 21  1  0
 21 22  2  0
  7 23  1  0
 23 24  2  0
 24 25  1  0
 25 26  1  0
 26 27  1  0
 27 28  1  0
 28 29  1  0
 24  4  1  0
 29 25  1  0
 22  8  1  0
 22 11  1  0
 20 15  1  0
M  END
$$$$
