
     RDKit          3D

 39 44  0  0  0  0  0  0  0  0999 V2000
  -21.5969   22.1555  -23.6259 C   0  0  0  0  0  0  0  0  0  0  0  0
  -21.9447   20.8045  -23.8281 O   0  0  0  0  0  0  0  0  0  0  0  0
  -23.0167   20.4848  -24.6381 C   0  0  0  0  0  0  0  0  0  0  0  0
  -23.1273   21.0948  -25.8983 C   0  0  0  0  0  0  0  0  0  0  0  0
  -24.1709   20.8194  -26.7516 C   0  0  0  0  0  0  0  0  0  0  0  0
  -24.2580   21.4572  -28.0169 N   0  0  0  0  0  0  0  0  0  0  0  0
  -25.5957   21.6913  -28.5156 C   0  0  0  0  0  0  0  0  0  0  0  0
  -25.6883   22.3794  -29.8223 C   0  0  0  0  0  0  0  0  0  0  0  0
  -24.4529   22.6649  -30.4579 N   0  0  0  0  0  0  0  0  0  0  0  0
  -24.1077   21.7761  -31.5211 C   0  0  0  0  0  0  0  0  0  0  0  0
  -23.3879   23.0354  -29.5910 C   0  0  0  0  0  0  0  0  0  0  0  0
  -23.0628   21.8197  -28.7101 C   0  0  0  0  0  0  0  0  0  0  0  0
  -25.1169   19.9111  -26.3203 C   0  0  0  0  0  0  0  0  0  0  0  0
  -25.0125   19.3108  -25.0870 C   0  0  0  0  0  0  0  0  0  0  0  0
  -23.9693   19.5863  -24.2341 C   0  0  0  0  0  0  0  0  0  0  0  0
  -23.8985   18.9754  -22.9857 N   0  0  0  0  0  0  0  0  0  0  0  0
  -24.8720   18.0279  -22.5087 C   0  0  0  0  0  0  0  0  0  0  0  0
  -24.7630   17.4767  -21.2872 N   0  0  0  0  0  0  0  0  0  0  0  0
  -25.6555   16.5817  -20.8328 C   0  0  0  0  0  0  0  0  0  0  0  0
  -26.7352   16.1803  -21.6029 C   0  0  0  0  0  0  0  0  0  0  0  0
  -26.8458   16.7421  -22.8521 C   0  0  0  0  0  0  0  0  0  0  0  0
  -25.9123   17.6484  -23.2656 N   0  0  0  0  0  0  0  0  0  0  0  0
  -27.9171   16.3489  -23.7103 N   0  0  0  0  0  0  0  0  0  0  0  0
  -28.0082   16.9508  -25.0037 C   0  0  0  0  0  0  0  0  0  0  0  0
  -29.0990   16.3005  -25.8237 C   0  0  0  0  0  0  0  0  0  0  0  0
  -29.4954   17.6749  -26.3146 C   0  0  0  0  0  0  0  0  0  0  0  0
  -28.7492   18.2535  -25.1312 C   0  0  0  0  0  0  0  0  0  0  0  0
  -28.8487   15.3781  -23.2538 C   0  0  0  0  0  0  0  0  0  0  0  0
  -29.8058   15.0035  -23.9741 O   0  0  0  0  0  0  0  0  0  0  0  0
  -28.6994   14.8124  -21.9481 N   0  0  0  0  0  0  0  0  0  0  0  0
  -29.6109   13.7966  -21.5468 C   0  0  0  0  0  0  0  0  0  0  0  0
  -30.6731   14.0159  -20.6946 C   0  0  0  0  0  0  0  0  0  0  0  0
  -30.8889   15.3859  -20.1598 C   0  0  0  0  0  0  0  0  0  0  0  0
  -31.5142   12.9752  -20.3509 C   0  0  0  0  0  0  0  0  0  0  0  0
  -31.3378   11.6932  -20.8334 C   0  0  0  0  0  0  0  0  0  0  0  0
  -30.2849   11.4704  -21.6802 C   0  0  0  0  0  0  0  0  0  0  0  0
  -29.4374   12.5096  -22.0277 C   0  0  0  0  0  0  0  0  0  0  0  0
  -28.3013   12.2600  -22.9360 C   0  0  0  0  0  0  0  0  0  0  0  0
  -27.6812   15.2050  -21.0266 C   0  0  0  0  0  0  0  0  0  0  0  0
  1  2  1  0
  2  3  1  0
  3  4  2  0
  4  5  1  0
  5  6  1  0
  6  7  1  0
  7  8  1  0
  8  9  1  0
  9 10  1  0
  9 11  1  0
 11 12  1  0
  5 13  2  0
 13 14  1  0
 14 15  2  0
 15 16  1  0
 16 17  1  0
 17 18  2  0
 18 19  1  0
 19 20  2  0
 20 21  1  0
 21 22  2  0
 21 23  1  0
 23 24  1  0
 24 25  1  0
 25 26  1  0
 26 27  1  0
 23 28  1  0
 28 29  2  0
 28 30  1  0
 30 31  1  0
 31 32  2  0
 32 33  1  0
 32 34  1  0
 34 35  2  0
 35 36  1  0
 36 37  2  0
 37 38  1  0
 30 39  1  0
 15  3  1  0
 22 17  1  0
 27 24  1  0
 37 31  1  0
 12  6  1  0
 39 20  1  0
M  END
$$$$
