
     RDKit          3D

 23 25  0  0  0  0  0  0  0  0999 V2000
  -15.0953   43.9618  -17.5577 N   0  0  0  0  0  0  0  0  0  0  0  0
  -15.9810   43.9912  -18.6702 C   0  0  0  0  0  0  0  0  0  0  0  0
  -16.1853   45.0828  -19.4268 N   0  0  0  0  0  0  0  0  0  0  0  0
  -17.0474   45.0586  -20.4852 C   0  0  0  0  0  0  0  0  0  0  0  0
  -17.7263   43.9433  -20.8135 N   0  0  0  0  0  0  0  0  0  0  0  0
  -17.5436   42.8161  -20.0673 C   0  0  0  0  0  0  0  0  0  0  0  0
  -16.6702   42.8437  -18.9964 C   0  0  0  0  0  0  0  0  0  0  0  0
  -16.6884   41.6196  -18.4548 N   0  0  0  0  0  0  0  0  0  0  0  0
  -17.5438   40.8658  -19.1686 C   0  0  0  0  0  0  0  0  0  0  0  0
  -18.0777   41.5939  -20.1667 N   0  0  0  0  0  0  0  0  0  0  0  0
  -19.0272   41.0985  -21.1164 C   0  0  2  0  0  0  0  0  0  0  0  0
  -19.3802   39.7664  -20.8949 O   0  0  0  0  0  0  0  0  0  0  0  0
  -20.0337   39.4711  -22.1112 C   0  0  2  0  0  0  0  0  0  0  0  0
  -20.4326   38.0278  -22.1933 C   0  0  0  0  0  0  0  0  0  0  0  0
  -19.4160   37.1986  -22.5900 O   0  0  0  0  0  0  0  0  0  0  0  0
  -19.0839   36.0203  -21.4442 P   0  0  0  0  0  5  0  0  0  0  0  0
  -17.9135   36.5353  -20.6024 O   0  0  0  0  0  0  0  0  0  0  0  0
  -18.5809   34.6068  -22.1878 O   0  0  0  0  0  0  0  0  0  0  0  0
  -20.3917   35.7481  -20.4124 O   0  0  0  0  0  0  0  0  0  0  0  0
  -18.9149   39.8168  -23.0733 C   0  0  1  0  0  0  0  0  0  0  0  0
  -19.3449   39.8625  -24.3889 O   0  0  0  0  0  0  0  0  0  0  0  0
  -18.5495   41.1890  -22.5412 C   0  0  1  0  0  0  0  0  0  0  0  0
  -19.2861   42.1162  -23.2866 O   0  0  0  0  0  0  0  0  0  0  0  0
  1  2  1  0
  2  3  2  0
  3  4  1  0
  4  5  2  0
  5  6  1  0
  6  7  2  0
  7  8  1  0
  8  9  2  0
  9 10  1  0
 11 10  1  1
 11 12  1  0
 12 13  1  0
 13 14  1  1
 14 15  1  0
 15 16  1  0
 16 17  2  0
 16 18  1  0
 16 19  1  0
 13 20  1  0
 20 21  1  6
 20 22  1  0
 22 23  1  6
  7  2  1  0
 22 11  1  0
 10  6  1  0
M  END
$$$$
