
     RDKit          3D

 27 26  0  0  0  0  0  0  0  0999 V2000
  -32.1499   16.1242  -23.9571 O   0  0  0  0  0  0  0  0  0  0  0  0
  -31.9619   15.3411  -23.0107 C   0  0  0  0  0  0  0  0  0  0  0  0
  -32.5000   14.0449  -23.1776 O   0  0  0  0  0  0  0  0  0  0  0  0
  -31.2502   15.6258  -21.7645 C   0  0  0  0  0  0  0  0  0  0  0  0
  -30.4198   14.5633  -21.3163 N   0  0  0  0  0  0  0  0  0  0  0  0
  -31.1587   13.4306  -20.8558 C   0  0  0  0  0  0  0  0  0  0  0  0
  -30.3940   12.2740  -20.3576 C   0  0  0  0  0  0  0  0  0  0  0  0
  -31.0924   11.2241  -19.7019 N   0  0  0  0  0  0  0  0  0  0  0  0
  -32.4037   10.9126  -20.1275 C   0  0  0  0  0  0  0  0  0  0  0  0
  -33.4148   10.7064  -19.0858 C   0  0  0  0  0  0  0  0  0  0  0  0
  -34.5935   10.3604  -19.3257 O   0  0  0  0  0  0  0  0  0  0  0  0
  -33.0704   10.9010  -17.7562 O   0  0  0  0  0  0  0  0  0  0  0  0
  -30.2654   10.0589  -19.4597 C   0  0  0  0  0  0  0  0  0  0  0  0
  -29.8541    9.3484  -20.6732 C   0  0  0  0  0  0  0  0  0  0  0  0
  -30.6978    8.5314  -21.1593 O   0  0  0  0  0  0  0  0  0  0  0  0
  -28.6562    9.4799  -21.3276 O   0  0  0  0  0  0  0  0  0  0  0  0
  -29.2395   14.3635  -22.0767 C   0  0  0  0  0  0  0  0  0  0  0  0
  -28.4115   15.6346  -22.0317 C   0  0  0  0  0  0  0  0  0  0  0  0
  -27.1296   15.5242  -22.7156 N   0  0  0  0  0  0  0  0  0  0  0  0
  -26.9759   14.3521  -23.4639 C   0  0  0  0  0  0  0  0  0  0  0  0
  -27.2322   14.4410  -24.8986 C   0  0  0  0  0  0  0  0  0  0  0  0
  -26.2862   14.4715  -25.7214 O   0  0  0  0  0  0  0  0  0  0  0  0
  -28.5235   14.5036  -25.4593 O   0  0  0  0  0  0  0  0  0  0  0  0
  -26.8674   16.7920  -23.2795 C   0  0  0  0  0  0  0  0  0  0  0  0
  -25.6164   17.4741  -23.0672 C   0  0  0  0  0  0  0  0  0  0  0  0
  -24.5767   16.8177  -22.7182 O   0  0  0  0  0  0  0  0  0  0  0  0
  -25.4205   18.8399  -23.2001 O   0  0  0  0  0  0  0  0  0  0  0  0
  1  2  2  0
  2  3  1  0
  2  4  1  0
  4  5  1  0
  5  6  1  0
  6  7  1  0
  7  8  1  0
  8  9  1  0
  9 10  1  0
 10 11  2  0
 10 12  1  0
  8 13  1  0
 13 14  1  0
 14 15  2  0
 14 16  1  0
  5 17  1  0
 17 18  1  0
 18 19  1  0
 19 20  1  0
 20 21  1  0
 21 22  2  0
 21 23  1  0
 19 24  1  0
 24 25  1  0
 25 26  2  0
 25 27  1  0
M  END
$$$$
