
     RDKit          3D

 29 31  0  0  0  0  0  0  0  0999 V2000
  -13.7455   17.5270  -38.8417 C   0  0  0  0  0  0  0  0  0  0  0  0
  -12.5916   16.7930  -39.5003 C   0  0  0  0  0  0  0  0  0  0  0  0
  -12.6630   16.8782  -41.0014 C   0  0  1  0  0  0  0  0  0  0  0  0
  -13.9393   17.2511  -41.5187 N   0  0  0  0  0  0  0  0  0  0  0  0
  -14.2032   18.4158  -42.2802 C   0  0  0  0  0  0  0  0  0  0  0  0
  -15.2596   19.2562  -42.5097 C   0  0  0  0  0  0  0  0  0  0  0  0
  -16.6077   19.3494  -42.0958 N   0  0  0  0  0  0  0  0  0  0  0  0
  -17.3672   20.5588  -42.2843 C   0  0  0  0  0  0  0  0  0  0  0  0
  -16.6865   21.6694  -42.7213 C   0  0  0  0  0  0  0  0  0  0  0  0
  -17.3853   22.8252  -42.9066 C   0  0  0  0  0  0  0  0  0  0  0  0
  -18.7676   22.8897  -42.6597 C   0  0  0  0  0  0  0  0  0  0  0  0
  -19.4591   21.7887  -42.2232 C   0  0  0  0  0  0  0  0  0  0  0  0
  -20.8788   21.7837  -41.9499 C   0  0  0  0  0  0  0  0  0  0  0  0
  -21.6186   21.5731  -43.0212 O   0  0  0  0  0  0  0  0  0  0  0  0
  -21.5780   21.9603  -40.7706 N   0  0  0  0  0  0  0  0  0  0  0  0
  -22.9812   21.8918  -40.5307 C   0  0  0  0  0  0  0  0  0  0  0  0
  -20.7607   22.2683  -39.5630 C   0  0  0  0  0  0  0  0  0  0  0  0
  -18.7028   20.6135  -42.0436 C   0  0  0  0  0  0  0  0  0  0  0  0
  -19.3620   19.4521  -41.5966 O   0  0  0  0  0  0  0  0  0  0  0  0
  -14.4778   20.0412  -43.3659 C   0  0  0  0  0  0  0  0  0  0  0  0
  -14.6484   21.0823  -44.0630 O   0  0  0  0  0  0  0  0  0  0  0  0
  -13.4325   19.1880  -43.1234 C   0  0  0  0  0  0  0  0  0  0  0  0
  -12.2145   19.1085  -43.5078 O   0  0  0  0  0  0  0  0  0  0  0  0
  -11.6557   17.9032  -41.4194 C   0  0  0  0  0  0  0  0  0  0  0  0
  -10.3378   18.0030  -41.0415 C   0  0  0  0  0  0  0  0  0  0  0  0
   -9.8036   19.0990  -41.6748 C   0  0  0  0  0  0  0  0  0  0  0  0
  -10.8234   19.6371  -42.4256 C   0  0  0  0  0  0  0  0  0  0  0  0
  -10.7104   20.8396  -43.2826 C   0  0  0  0  0  0  0  0  0  0  0  0
  -11.8772   18.9106  -42.2459 O   0  0  0  0  0  0  0  0  0  0  0  0
  1  2  1  0
  3  2  1  1
  3  4  1  0
  4  5  1  0
  5  6  2  0
  6  7  1  0
  7  8  1  0
  8  9  2  0
  9 10  1  0
 10 11  2  0
 11 12  1  0
 12 13  1  0
 13 14  2  0
 13 15  1  0
 15 16  1  0
 15 17  1  0
 12 18  2  0
 18 19  1  0
  6 20  1  0
 20 21  2  0
 20 22  1  0
 22 23  2  0
  3 24  1  0
 24 25  2  0
 25 26  1  0
 26 27  2  0
 27 28  1  0
 27 29  1  0
 22  5  1  0
 29 24  1  0
 18  8  1  0
M  END
$$$$
