
     RDKit          3D

 20 20  0  0  0  0  0  0  0  0999 V2000
  -28.6200   28.3640  -37.5568 O   0  0  0  0  0  0  0  0  0  0  0  0
  -28.3664   28.1765  -36.3476 C   0  0  0  0  0  0  0  0  0  0  0  0
  -28.7025   29.1672  -35.4460 O   0  0  0  0  0  1  0  0  0  0  0  0
  -27.7310   26.9395  -35.9067 C   0  0  0  0  0  0  0  0  0  0  0  0
  -28.5324   25.7206  -36.2706 C   0  0  0  0  0  0  0  0  0  0  0  0
  -29.7960   25.8493  -36.8155 C   0  0  0  0  0  0  0  0  0  0  0  0
  -30.5793   24.7735  -37.1646 C   0  0  0  0  0  0  0  0  0  0  0  0
  -30.0533   23.5194  -36.9491 C   0  0  0  0  0  0  0  0  0  0  0  0
  -28.8104   23.3492  -36.4132 C   0  0  0  0  0  0  0  0  0  0  0  0
  -28.0295   24.4713  -36.0648 C   0  0  0  0  0  0  0  0  0  0  0  0
  -26.7629   24.1864  -35.5133 N   0  0  0  0  0  0  0  0  0  0  0  0
  -25.5022   24.5520  -35.9977 C   0  0  0  0  0  0  0  0  0  0  0  0
  -24.6111   25.3570  -35.3017 C   0  0  0  0  0  0  0  0  0  0  0  0
  -25.0231   25.9369  -33.6985 Cl  0  0  0  0  0  0  0  0  0  0  0  0
  -23.3764   25.7202  -35.8116 C   0  0  0  0  0  0  0  0  0  0  0  0
  -22.9849   25.2803  -37.0599 C   0  0  0  0  0  0  0  0  0  0  0  0
  -23.8600   24.4857  -37.7497 C   0  0  0  0  0  0  0  0  0  0  0  0
  -25.0920   24.1108  -37.2660 C   0  0  0  0  0  0  0  0  0  0  0  0
  -26.1721   23.0906  -38.1939 Cl  0  0  0  0  0  0  0  0  0  0  0  0
  -26.9921   25.2827  -36.4411 Na  0  0  0  0  0 15  0  0  0  0  0  0
  1  2  2  0
  2  3  1  0
  2  4  1  0
  4  5  1  0
  5  6  2  0
  6  7  1  0
  7  8  2  0
  8  9  1  0
  9 10  2  0
 10 11  1  0
 11 12  1  0
 12 13  2  0
 13 14  1  0
 13 15  1  0
 15 16  2  0
 16 17  1  0
 17 18  2  0
 18 19  1  0
 10  5  1  0
 18 12  1  0
M  CHG  2   3  -1  20   1
M  END
$$$$
