
     RDKit          3D

 10 10  0  0  0  0  0  0  0  0999 V2000
  -16.0874   18.7010  -30.2774 C   0  0  0  0  0  0  0  0  0  0  0  0
  -16.5433   17.8848  -31.4588 C   0  0  0  0  0  0  0  0  0  0  0  0
  -16.6540   18.7547  -32.7137 C   0  0  0  0  0  0  0  0  0  0  0  0
  -15.5321   18.3916  -33.5632 N   0  0  0  0  0  0  0  0  0  0  0  0
  -17.9146   17.4063  -31.1655 C   0  0  0  0  0  0  0  0  0  0  0  0
  -18.0645   16.1235  -30.6957 C   0  0  0  0  0  0  0  0  0  0  0  0
  -19.3368   15.6747  -30.4218 C   0  0  0  0  0  0  0  0  0  0  0  0
  -20.4415   16.4926  -30.6135 C   0  0  0  0  0  0  0  0  0  0  0  0
  -20.2673   17.7760  -31.0857 C   0  0  0  0  0  0  0  0  0  0  0  0
  -18.9911   18.2377  -31.3645 C   0  0  0  0  0  0  0  0  0  0  0  0
  1  2  1  0
  2  3  1  0
  3  4  1  0
  2  5  1  0
  5  6  2  0
  6  7  1  0
  7  8  2  0
  8  9  1  0
  9 10  2  0
 10  5  1  0
M  END
$$$$
