
     RDKit          3D

 30 33  0  0  0  0  0  0  0  0999 V2000
  -20.7932   15.3389  -23.9361 C   0  0  0  0  0  0  0  0  0  0  0  0
  -21.6166   15.5723  -22.9951 O   0  0  0  0  0  0  0  0  0  0  0  0
  -22.4496   15.7455  -21.9897 C   0  0  0  0  0  0  0  0  0  0  0  0
  -22.1034   15.2611  -20.7474 C   0  0  0  0  0  0  0  0  0  0  0  0
  -22.9312   15.4125  -19.6450 C   0  0  0  0  0  0  0  0  0  0  0  0
  -24.1264   16.0648  -19.8154 C   0  0  0  0  0  0  0  0  0  0  0  0
  -24.5427   16.5727  -21.0011 C   0  0  0  0  0  0  0  0  0  0  0  0
  -25.8310   17.2567  -21.1684 C   0  0  0  0  0  0  0  0  0  0  0  0
  -26.5100   16.9450  -22.3934 N   0  0  0  0  0  0  0  0  0  0  0  0
  -27.6940   16.1691  -22.3876 C   0  0  0  0  0  0  0  0  0  0  0  0
  -27.9833   15.3573  -21.2695 C   0  0  0  0  0  0  0  0  0  0  0  0
  -29.1272   14.5399  -21.2528 C   0  0  0  0  0  0  0  0  0  0  0  0
  -29.9810   14.5016  -22.2842 C   0  0  0  0  0  0  0  0  0  0  0  0
  -31.4241   13.5419  -22.4695 S   0  0  0  0  0  6  0  0  0  0  0  0
  -32.6736   14.3106  -22.2793 O   0  0  0  0  0  0  0  0  0  0  0  0
  -31.4388   12.5059  -21.3131 O   0  0  0  0  0  0  0  0  0  0  0  0
  -31.4117   12.6591  -23.9248 N   0  0  0  0  0  0  0  0  0  0  0  0
  -30.3376   11.6790  -24.2067 C   0  0  0  0  0  0  0  0  0  0  0  0
  -29.2170   11.4470  -24.1038 N   0  0  0  0  0  0  0  0  0  0  0  0
  -28.5252   10.3679  -24.4563 C   0  0  0  0  0  0  0  0  0  0  0  0
  -27.1730   10.0771  -24.3113 C   0  0  0  0  0  0  0  0  0  0  0  0
  -26.6547    8.8724  -24.7290 C   0  0  0  0  0  0  0  0  0  0  0  0
  -27.4063    7.8829  -25.3173 C   0  0  0  0  0  0  0  0  0  0  0  0
  -28.7816    8.1521  -25.4777 C   0  0  0  0  0  0  0  0  0  0  0  0
  -29.2768    9.3697  -25.0422 C   0  0  0  0  0  0  0  0  0  0  0  0
  -30.9398   10.0767  -25.0457 S   0  0  0  0  0  0  0  0  0  0  0  0
  -29.6505   15.3380  -23.3957 C   0  0  0  0  0  0  0  0  0  0  0  0
  -28.5432   16.1238  -23.4028 C   0  0  0  0  0  0  0  0  0  0  0  0
  -23.6836   16.4031  -22.0920 C   0  0  0  0  0  0  0  0  0  0  0  0
  -24.0429   16.8984  -23.3119 O   0  0  0  0  0  0  0  0  0  0  0  0
  1  2  1  0
  2  3  1  0
  3  4  2  0
  4  5  1  0
  5  6  2  0
  6  7  1  0
  7  8  1  0
  8  9  1  0
  9 10  1  0
 10 11  2  0
 11 12  1  0
 12 13  2  0
 13 14  1  0
 14 15  2  0
 14 16  2  0
 14 17  1  0
 17 18  1  0
 18 19  2  0
 19 20  1  0
 20 21  2  0
 21 22  1  0
 22 23  2  0
 23 24  1  0
 24 25  2  0
 25 26  1  0
 13 27  1  0
 27 28  2  0
  7 29  2  0
 29 30  1  0
 29  3  1  0
 28 10  1  0
 26 18  1  0
 25 20  1  0
M  END
$$$$
