
     RDKit          3D

 34 37  0  0  0  0  0  0  0  0999 V2000
  -10.5118   18.7277  -43.8165 C   0  0  0  0  0  0  0  0  0  0  0  0
  -11.4440   18.0889  -44.6971 N   0  0  0  0  0  0  0  0  0  0  0  0
  -10.8338   17.2069  -45.6467 C   0  0  0  0  0  0  0  0  0  0  0  0
  -12.6005   17.5639  -44.0525 C   0  0  0  0  0  0  0  0  0  0  0  0
  -12.4262   17.3990  -42.5605 C   0  0  0  0  0  0  0  0  0  0  0  0
  -13.3460   16.4482  -41.9928 N   0  0  0  0  0  0  0  0  0  0  0  0
  -14.5929   16.7884  -41.4087 C   0  0  0  0  0  0  0  0  0  0  0  0
  -15.4675   15.8972  -41.3027 O   0  0  0  0  0  0  0  0  0  0  0  0
  -14.9019   18.0895  -40.9378 N   0  0  0  0  0  0  0  0  0  0  0  0
  -14.9730   18.3047  -39.5155 C   0  0  0  0  0  0  0  0  0  0  0  0
  -16.3309   18.0698  -38.9314 C   0  0  1  0  0  0  0  0  0  0  0  0
  -17.1538   17.0367  -39.6220 C   0  0  0  0  0  0  0  0  0  0  0  0
  -18.3485   16.7485  -38.7083 C   0  0  0  0  0  0  0  0  0  0  0  0
  -18.7074   17.9903  -37.8759 C   0  0  2  0  0  0  0  0  0  0  0  0
  -17.5241   18.3198  -37.0464 C   0  0  2  0  0  0  0  0  0  0  0  0
  -16.3242   17.8134  -37.5840 O   0  0  0  0  0  0  0  0  0  0  0  0
  -17.6138   18.0657  -35.6047 C   0  0  0  0  0  0  0  0  0  0  0  0
  -16.4591   17.8368  -34.8326 C   0  0  0  0  0  0  0  0  0  0  0  0
  -16.5457   17.6245  -33.4776 C   0  0  0  0  0  0  0  0  0  0  0  0
  -15.2912   17.3803  -32.6815 C   0  0  0  0  0  0  0  0  0  0  0  0
  -15.6773   17.3464  -31.3372 F   0  0  0  0  0  0  0  0  0  0  0  0
  -14.7793   16.1568  -32.9764 F   0  0  0  0  0  0  0  0  0  0  0  0
  -14.4386   18.4275  -32.8464 F   0  0  0  0  0  0  0  0  0  0  0  0
  -17.7845   17.6385  -32.8780 C   0  0  0  0  0  0  0  0  0  0  0  0
  -18.9170   17.8628  -33.6357 C   0  0  0  0  0  0  0  0  0  0  0  0
  -18.8463   18.0771  -35.0003 C   0  0  0  0  0  0  0  0  0  0  0  0
  -19.9859   18.2924  -35.8116 N   0  0  0  0  0  0  0  0  0  0  0  0
  -19.9815   17.7237  -37.1725 C   0  0  1  0  0  0  0  0  0  0  0  0
  -21.2218   18.0922  -37.8619 C   0  0  0  0  0  0  0  0  0  0  0  0
  -22.1037   17.2094  -38.3840 C   0  0  0  0  0  0  0  0  0  0  0  0
  -23.2486   17.6989  -39.0265 C   0  0  0  0  0  0  0  0  0  0  0  0
  -23.4833   19.0502  -39.1306 C   0  0  0  0  0  0  0  0  0  0  0  0
  -22.5843   19.9473  -38.5977 C   0  0  0  0  0  0  0  0  0  0  0  0
  -21.4603   19.4747  -37.9668 C   0  0  0  0  0  0  0  0  0  0  0  0
  1  2  1  0
  2  3  1  0
  2  4  1  0
  4  5  1  0
  5  6  1  0
  6  7  1  0
  7  8  2  0
  7  9  1  0
  9 10  1  0
 11 10  1  6
 11 12  1  0
 12 13  1  0
 14 13  1  1
 14 15  1  0
 15 16  1  6
 15 17  1  0
 17 18  2  0
 18 19  1  0
 19 20  1  0
 20 21  1  0
 20 22  1  0
 20 23  1  0
 19 24  2  0
 24 25  1  0
 25 26  2  0
 26 27  1  0
 27 28  1  0
 28 29  1  6
 29 30  2  0
 30 31  1  0
 31 32  2  0
 32 33  1  0
 33 34  2  0
 16 11  1  0
 26 17  1  0
 34 29  1  0
 28 14  1  0
M  END
$$$$
