
     RDKit          3D

 28 30  0  0  0  0  0  0  0  0999 V2000
  -21.2513   25.3862  -27.6348 C   0  0  0  0  0  0  0  0  0  0  0  0
  -22.6327   25.9426  -27.5378 C   0  0  0  0  0  0  0  0  0  0  0  0
  -23.0761   26.6353  -28.8213 C   0  0  0  0  0  0  0  0  0  0  0  0
  -23.5959   24.8410  -27.2933 C   0  0  0  0  0  0  0  0  0  0  0  0
  -24.8401   24.9582  -26.6815 C   0  0  0  0  0  0  0  0  0  0  0  0
  -25.3512   23.7198  -26.6775 N   0  0  0  0  0  0  0  0  0  0  0  0
  -24.4899   22.8617  -27.2506 N   0  0  0  0  0  0  0  0  0  0  0  0
  -24.5853   21.5380  -27.4602 C   0  0  0  0  0  0  0  0  0  0  0  0
  -25.7400   20.8260  -27.0487 N   0  0  0  0  0  0  0  0  0  0  0  0
  -25.8851   19.4173  -27.3192 C   0  0  0  0  0  0  0  0  0  0  0  0
  -25.6803   18.6078  -26.1022 C   0  0  0  0  0  0  0  0  0  0  0  0
  -26.6861   18.5661  -25.1633 C   0  0  0  0  0  0  0  0  0  0  0  0
  -26.5572   17.8209  -23.9925 C   0  0  0  0  0  0  0  0  0  0  0  0
  -25.3817   17.1200  -23.8002 C   0  0  0  0  0  0  0  0  0  0  0  0
  -24.3661   17.1377  -24.7062 C   0  0  0  0  0  0  0  0  0  0  0  0
  -24.5355   17.8951  -25.8631 C   0  0  0  0  0  0  0  0  0  0  0  0
  -23.5373   20.8724  -28.0845 C   0  0  0  0  0  0  0  0  0  0  0  0
  -22.4013   21.5338  -28.4945 C   0  0  0  0  0  0  0  0  0  0  0  0
  -21.3002   20.9357  -29.1162 N   0  0  0  0  0  0  0  0  0  0  0  0
  -21.0530   19.5498  -29.3332 C   0  0  0  0  0  0  0  0  0  0  0  0
  -21.4052   19.0296  -30.6938 C   0  0  0  0  0  0  0  0  0  0  0  0
  -21.1351   17.5382  -30.8126 C   0  0  0  0  0  0  0  0  0  0  0  0
  -20.5869   17.2569  -32.1787 C   0  0  0  0  0  0  0  0  0  0  0  0
  -19.7709   16.0048  -32.2461 C   0  0  0  0  0  0  0  0  0  0  0  0
  -19.2177   15.7732  -33.6498 C   0  0  0  0  0  0  0  0  0  0  0  0
  -18.4573   14.5397  -33.6414 N   0  0  0  0  0  0  0  0  0  0  0  0
  -22.3949   22.8738  -28.2401 N   0  0  0  0  0  0  0  0  0  0  0  0
  -23.3973   23.5174  -27.6419 C   0  0  0  0  0  0  0  0  0  0  0  0
  1  2  1  0
  2  3  1  0
  2  4  1  0
  4  5  1  0
  5  6  2  0
  6  7  1  0
  7  8  1  0
  8  9  1  0
  9 10  1  0
 10 11  1  0
 11 12  2  0
 12 13  1  0
 13 14  2  0
 14 15  1  0
 15 16  2  0
  8 17  2  0
 17 18  1  0
 18 19  1  0
 19 20  1  0
 20 21  1  0
 21 22  1  0
 22 23  1  0
 23 24  1  0
 24 25  1  0
 25 26  1  0
 18 27  2  0
 27 28  1  0
 28  4  2  0
 28  7  1  0
 16 11  1  0
M  END
$$$$
