
     RDKit          3D

 32 35  0  0  0  0  0  0  0  0999 V2000
  -19.1960   39.7542  -19.4270 O   0  0  0  0  0  0  0  0  0  0  0  0
  -18.4808   40.0164  -20.4273 C   0  0  0  0  0  0  0  0  0  0  0  0
  -18.1529   38.9996  -21.2811 O   0  0  0  0  0  0  0  0  0  0  0  0
  -18.8354   37.7958  -21.3747 C   0  0  0  0  0  0  0  0  0  0  0  0
  -19.8847   37.5880  -22.2558 C   0  0  0  0  0  0  0  0  0  0  0  0
  -20.5499   36.3861  -22.3342 C   0  0  0  0  0  0  0  0  0  0  0  0
  -20.1867   35.3456  -21.5301 C   0  0  0  0  0  0  0  0  0  0  0  0
  -20.8398   34.0861  -21.5707 N   0  0  0  0  0  4  0  0  0  0  0  0
  -20.3749   33.1047  -20.9602 O   0  0  0  0  0  0  0  0  0  0  0  0
  -21.9972   33.9891  -22.3042 O   0  0  0  0  0  1  0  0  0  0  0  0
  -19.1409   35.5301  -20.6417 C   0  0  0  0  0  0  0  0  0  0  0  0
  -18.4745   36.7396  -20.5656 C   0  0  0  0  0  0  0  0  0  0  0  0
  -18.0415   41.3677  -20.6280 N   0  0  0  0  0  0  0  0  0  0  0  0
  -17.0283   41.6839  -21.5840 C   0  0  0  0  0  0  0  0  0  0  0  0
  -17.3687   43.0441  -22.2091 C   0  0  0  0  0  0  0  0  0  0  0  0
  -17.3655   44.0184  -21.1882 N   0  0  0  0  0  0  0  0  0  0  0  0
  -16.6428   45.2102  -21.3800 C   0  0  0  0  0  0  0  0  0  0  0  0
  -15.3486   45.3402  -20.7155 C   0  0  0  0  0  0  0  0  0  0  0  0
  -14.1959   44.8583  -21.2920 C   0  0  0  0  0  0  0  0  0  0  0  0
  -13.0225   45.0316  -20.5863 C   0  0  0  0  0  0  0  0  0  0  0  0
  -12.9853   45.6566  -19.3572 C   0  0  0  0  0  0  0  0  0  0  0  0
  -14.1404   46.1415  -18.7752 C   0  0  0  0  0  0  0  0  0  0  0  0
  -14.0941   46.7686  -17.5389 O   0  0  0  0  0  0  0  0  0  0  0  0
  -13.4936   46.1424  -16.4628 C   0  0  0  0  0  0  0  0  0  0  0  0
  -13.6469   44.7760  -16.2990 C   0  0  0  0  0  0  0  0  0  0  0  0
  -13.0774   44.0850  -15.2505 C   0  0  0  0  0  0  0  0  0  0  0  0
  -12.3165   44.7910  -14.3176 C   0  0  0  0  0  0  0  0  0  0  0  0
  -12.1454   46.1567  -14.4546 C   0  0  0  0  0  0  0  0  0  0  0  0
  -12.7365   46.8294  -15.5301 C   0  0  0  0  0  0  0  0  0  0  0  0
  -15.3058   45.9650  -19.4849 C   0  0  0  0  0  0  0  0  0  0  0  0
  -17.5722   43.5684  -19.8591 C   0  0  0  0  0  0  0  0  0  0  0  0
  -18.6222   42.4484  -19.8570 C   0  0  0  0  0  0  0  0  0  0  0  0
  1  2  2  0
  2  3  1  0
  3  4  1  0
  4  5  2  0
  5  6  1  0
  6  7  2  0
  7  8  1  0
  8  9  2  0
  8 10  1  0
  7 11  1  0
 11 12  2  0
  2 13  1  0
 13 14  1  0
 14 15  1  0
 15 16  1  0
 16 17  1  0
 17 18  1  0
 18 19  2  0
 19 20  1  0
 20 21  2  0
 21 22  1  0
 22 23  1  0
 23 24  1  0
 24 25  2  0
 25 26  1  0
 26 27  2  0
 27 28  1  0
 28 29  2  0
 22 30  2  0
 16 31  1  0
 31 32  1  0
 12  4  1  0
 32 13  1  0
 30 18  1  0
 29 24  1  0
M  CHG  2   8   1  10  -1
M  END
$$$$
