
     RDKit          3D

 20 22  0  0  0  0  0  0  0  0999 V2000
  -20.9313   42.1022  -18.1111 O   0  0  0  0  0  0  0  0  0  0  0  0
  -21.0812   43.0159  -18.9692 C   0  0  0  0  0  0  0  0  0  0  0  0
  -20.8347   42.6785  -20.3925 C   0  0  0  0  0  0  0  0  0  0  0  0
  -19.5573   41.9945  -20.6128 C   0  0  0  0  0  0  0  0  0  0  0  0
  -19.5253   40.6096  -20.4805 C   0  0  0  0  0  0  0  0  0  0  0  0
  -18.3521   39.9054  -20.6774 C   0  0  0  0  0  0  0  0  0  0  0  0
  -17.2006   40.5959  -21.0097 C   0  0  0  0  0  0  0  0  0  0  0  0
  -17.2066   41.9893  -21.1490 C   0  0  0  0  0  0  0  0  0  0  0  0
  -18.4063   42.6555  -20.9423 C   0  0  0  0  0  0  0  0  0  0  0  0
  -18.4335   43.9865  -21.0695 F   0  0  0  0  0  0  0  0  0  0  0  0
  -21.4772   44.2981  -18.5122 N   0  0  0  0  0  0  0  0  0  0  0  0
  -21.8732   44.5529  -17.1422 C   0  0  0  0  0  0  0  0  0  0  0  0
  -21.7579   45.7016  -16.4668 N   0  0  0  0  0  0  0  0  0  0  0  0
  -22.2368   45.5227  -15.2319 C   0  0  0  0  0  0  0  0  0  0  0  0
  -22.3581   46.3769  -14.1312 C   0  0  0  0  0  0  0  0  0  0  0  0
  -22.8968   45.9388  -12.9538 C   0  0  0  0  0  0  0  0  0  0  0  0
  -23.3208   44.6213  -12.8792 C   0  0  0  0  0  0  0  0  0  0  0  0
  -23.2120   43.7576  -13.9520 C   0  0  0  0  0  0  0  0  0  0  0  0
  -22.6630   44.2229  -15.1354 C   0  0  0  0  0  0  0  0  0  0  0  0
  -22.4291   43.6446  -16.3245 N   0  0  0  0  0  0  0  0  0  0  0  0
  1  2  2  0
  2  3  1  0
  3  4  1  0
  4  5  2  0
  5  6  1  0
  6  7  2  0
  7  8  1  0
  8  9  2  0
  9 10  1  0
  2 11  1  0
 11 12  1  0
 12 13  2  0
 13 14  1  0
 14 15  2  0
 15 16  1  0
 16 17  2  0
 17 18  1  0
 18 19  2  0
 19 20  1  0
  9  4  1  0
 20 12  1  0
 19 14  1  0
M  END
$$$$
