
     RDKit          3D

 29 31  0  0  0  0  0  0  0  0999 V2000
  -21.4732   19.5293  -35.2848 C   0  0  0  0  0  0  0  0  0  0  0  0
  -20.3188   19.2877  -36.0551 O   0  0  0  0  0  0  0  0  0  0  0  0
  -20.4105   19.0519  -37.4144 C   0  0  0  0  0  0  0  0  0  0  0  0
  -21.6452   18.9432  -37.9991 C   0  0  0  0  0  0  0  0  0  0  0  0
  -21.7363   18.7071  -39.3599 C   0  0  0  0  0  0  0  0  0  0  0  0
  -20.5891   18.5855  -40.1033 C   0  0  0  0  0  0  0  0  0  0  0  0
  -19.3426   18.6908  -39.5386 C   0  0  0  0  0  0  0  0  0  0  0  0
  -19.2528   18.9279  -38.1715 C   0  0  0  0  0  0  0  0  0  0  0  0
  -18.0450   19.0354  -37.5877 C   0  0  0  0  0  0  0  0  0  0  0  0
  -18.0062   19.2725  -36.2155 O   0  0  0  0  0  0  0  0  0  0  0  0
  -16.8709   18.9111  -38.3450 C   0  0  0  0  0  0  0  0  0  0  0  0
  -15.6196   19.0968  -37.6423 C   0  0  0  0  0  0  0  0  0  0  0  0
  -14.6517   19.6827  -38.3426 O   0  0  0  0  0  0  0  0  0  0  0  0
  -15.2033   18.7890  -36.3600 N   0  0  0  0  0  0  0  0  0  0  0  0
  -14.1964   19.4635  -35.6137 C   0  0  0  0  0  0  0  0  0  0  0  0
  -15.7707   17.6222  -35.7113 C   0  0  0  0  0  0  0  0  0  0  0  0
  -15.7140   16.4129  -36.3481 C   0  0  0  0  0  0  0  0  0  0  0  0
  -16.2462   15.2743  -35.7587 C   0  0  0  0  0  0  0  0  0  0  0  0
  -16.8439   15.3563  -34.5098 C   0  0  0  0  0  0  0  0  0  0  0  0
  -17.3922   14.0953  -33.9406 C   0  0  0  0  0  0  0  0  0  0  0  0
  -16.4182   13.2802  -33.4348 F   0  0  0  0  0  0  0  0  0  0  0  0
  -18.0640   13.4412  -34.9474 F   0  0  0  0  0  0  0  0  0  0  0  0
  -18.2740   14.4612  -32.9389 F   0  0  0  0  0  0  0  0  0  0  0  0
  -16.9025   16.5632  -33.8703 C   0  0  0  0  0  0  0  0  0  0  0  0
  -16.3602   17.7049  -34.4789 C   0  0  0  0  0  0  0  0  0  0  0  0
  -17.0457   18.6840  -39.6654 C   0  0  0  0  0  0  0  0  0  0  0  0
  -16.0615   18.5684  -40.4202 O   0  0  0  0  0  0  0  0  0  0  0  0
  -18.2488   18.5676  -40.2945 N   0  0  0  0  0  0  0  0  0  0  0  0
  -18.2864   18.3227  -41.7115 C   0  0  0  0  0  0  0  0  0  0  0  0
  1  2  1  0
  2  3  1  0
  3  4  2  0
  4  5  1  0
  5  6  2  0
  6  7  1  0
  7  8  2  0
  8  9  1  0
  9 10  1  0
  9 11  2  0
 11 12  1  0
 12 13  2  0
 12 14  1  0
 14 15  1  0
 14 16  1  0
 16 17  2  0
 17 18  1  0
 18 19  2  0
 19 20  1  0
 20 21  1  0
 20 22  1  0
 20 23  1  0
 19 24  1  0
 24 25  2  0
 11 26  1  0
 26 27  2  0
 26 28  1  0
 28 29  1  0
  8  3  1  0
 25 16  1  0
 28  7  1  0
M  END
$$$$
