
     RDKit          3D

 21 22  0  0  0  0  0  0  0  0999 V2000
    6.4808    4.5870  -25.2174 C   0  0  0  0  0  0  0  0  0  0  0  0
    7.4259    5.4013  -25.9339 N   0  0  0  0  0  0  0  0  0  0  0  0
    6.9377    5.8087  -27.2388 C   0  0  1  0  0  0  0  0  0  0  0  0
    5.6892    6.5950  -27.0556 C   0  0  0  0  0  0  0  0  0  0  0  0
    5.3551    7.5627  -28.1339 C   0  0  0  0  0  0  0  0  0  0  0  0
    6.2692    7.4647  -29.3313 C   0  0  1  0  0  0  0  0  0  0  0  0
    6.0149    8.5233  -30.3380 C   0  0  0  0  0  0  0  0  0  0  0  0
    6.0401    8.2439  -31.7084 C   0  0  0  0  0  0  0  0  0  0  0  0
    5.8073    9.2145  -32.6603 C   0  0  0  0  0  0  0  0  0  0  0  0
    5.5391   10.5091  -32.2725 C   0  0  0  0  0  0  0  0  0  0  0  0
    5.2457   11.7296  -33.4992 Cl  0  0  0  0  0  0  0  0  0  0  0  0
    5.5071   10.8168  -30.9306 C   0  0  0  0  0  0  0  0  0  0  0  0
    5.1631   12.4726  -30.4736 Cl  0  0  0  0  0  0  0  0  0  0  0  0
    5.7434    9.8284  -29.9886 C   0  0  0  0  0  0  0  0  0  0  0  0
    7.6934    7.3741  -28.9436 C   0  0  0  0  0  0  0  0  0  0  0  0
    8.6820    8.0739  -29.5777 C   0  0  0  0  0  0  0  0  0  0  0  0
   10.0095    7.9367  -29.1530 C   0  0  0  0  0  0  0  0  0  0  0  0
   10.3603    7.1085  -28.1023 C   0  0  0  0  0  0  0  0  0  0  0  0
    9.3507    6.4116  -27.4759 C   0  0  0  0  0  0  0  0  0  0  0  0
    8.0386    6.5521  -27.9015 C   0  0  0  0  0  0  0  0  0  0  0  0
    6.6940    7.9330  -29.2241 Cl  0  0  0  0  0  0  0  0  0  0  0  0
  1  2  1  0
  3  2  1  1
  3  4  1  0
  4  5  1  0
  5  6  1  0
  6  7  1  6
  7  8  2  0
  8  9  1  0
  9 10  2  0
 10 11  1  0
 10 12  1  0
 12 13  1  0
 12 14  2  0
  6 15  1  0
 15 16  2  0
 16 17  1  0
 17 18  2  0
 18 19  1  0
 19 20  2  0
 20  3  1  0
 14  7  1  0
 20 15  1  0
M  END
$$$$
