
     RDKit          3D

 14 14  0  0  0  0  0  0  0  0999 V2000
  -26.5090   21.2908  -28.8589 C   0  0  0  0  0  0  0  0  0  0  0  0
  -25.7123   22.5678  -28.6766 C   0  0  2  0  0  0  0  0  0  0  0  0
  -25.1950   22.9567  -29.9695 N   0  0  0  0  0  0  0  0  0  0  0  0
  -24.6219   22.3818  -27.6557 C   0  0  0  0  0  0  0  0  0  0  0  0
  -23.7150   23.5324  -27.5743 C   0  0  0  0  0  0  0  0  0  0  0  0
  -22.4930   23.5253  -28.2034 C   0  0  0  0  0  0  0  0  0  0  0  0
  -21.6169   24.5897  -28.1467 C   0  0  0  0  0  0  0  0  0  0  0  0
  -21.9859   25.7050  -27.4284 C   0  0  0  0  0  0  0  0  0  0  0  0
  -21.0929   26.7823  -27.3742 O   0  0  0  0  0  0  0  0  0  0  0  0
  -23.2038   25.7637  -26.7769 C   0  0  0  0  0  0  0  0  0  0  0  0
  -24.0492   24.6698  -26.8633 C   0  0  0  0  0  0  0  0  0  0  0  0
  -26.6621   23.6033  -28.2063 C   0  0  0  0  0  0  0  0  0  0  0  0
  -26.7794   24.6730  -28.8359 O   0  0  0  0  0  0  0  0  0  0  0  0
  -27.4248   23.3952  -27.0694 O   0  0  0  0  0  0  0  0  0  0  0  0
  2  1  1  6
  2  3  1  0
  2  4  1  0
  4  5  1  0
  5  6  2  0
  6  7  1  0
  7  8  2  0
  8  9  1  0
  8 10  1  0
 10 11  2  0
  2 12  1  0
 12 13  2  0
 12 14  1  0
 11  5  1  0
M  END
$$$$
