
     RDKit          3D

 28 31  0  0  0  0  0  0  0  0999 V2000
  -20.3432   38.4165  -20.9408 O   0  0  0  0  0  0  0  0  0  0  0  0
  -19.2192   37.8912  -21.1717 C   0  0  0  0  0  0  0  0  0  0  0  0
  -18.1596   38.7478  -21.5567 N   0  0  0  0  0  0  0  0  0  0  0  0
  -18.2313   39.8031  -22.5123 C   0  0  0  0  0  0  0  0  0  0  0  0
  -18.5995   41.1040  -21.8666 C   0  0  2  0  0  0  0  0  0  0  0  0
  -19.9183   41.4538  -22.0591 O   0  0  0  0  0  0  0  0  0  0  0  0
  -17.7155   42.2289  -22.4329 C   0  0  0  0  0  0  0  0  0  0  0  0
  -18.0916   43.4369  -21.7763 N   0  0  0  0  0  0  0  0  0  0  0  0
  -19.4624   43.7885  -21.8093 C   0  0  0  0  0  0  0  0  0  0  0  0
  -19.7508   45.2692  -21.8359 C   0  0  0  0  0  0  0  0  0  0  0  0
  -18.8513   45.9078  -20.8404 C   0  0  0  0  0  0  0  0  0  0  0  0
  -19.2210   46.8178  -19.9023 C   0  0  0  0  0  0  0  0  0  0  0  0
  -18.3103   47.3558  -19.0204 C   0  0  0  0  0  0  0  0  0  0  0  0
  -16.9855   46.9580  -19.0938 C   0  0  0  0  0  0  0  0  0  0  0  0
  -16.5683   46.0388  -20.0288 C   0  0  0  0  0  0  0  0  0  0  0  0
  -17.5181   45.5331  -20.8848 C   0  0  0  0  0  0  0  0  0  0  0  0
  -17.1698   44.5287  -21.9358 C   0  0  0  0  0  0  0  0  0  0  0  0
  -19.0043   36.4511  -21.0504 C   0  0  0  0  0  0  0  0  0  0  0  0
  -20.0090   35.5210  -21.1675 C   0  0  0  0  0  0  0  0  0  0  0  0
  -19.7749   34.1571  -21.0469 C   0  0  0  0  0  0  0  0  0  0  0  0
  -20.8179   33.1949  -21.1713 N   0  0  0  0  0  0  0  0  0  0  0  0
  -20.4719   31.8007  -20.9787 C   0  0  0  0  0  0  0  0  0  0  0  0
  -19.7237   31.1842  -22.1288 C   0  0  0  0  0  0  0  0  0  0  0  0
  -20.7540   30.2397  -22.2359 O   0  0  0  0  0  0  0  0  0  0  0  0
  -21.6580   30.9446  -21.4315 C   0  0  0  0  0  0  0  0  0  0  0  0
  -18.4883   33.8044  -20.8060 N   0  0  0  0  0  0  0  0  0  0  0  0
  -17.4815   34.6839  -20.6858 C   0  0  0  0  0  0  0  0  0  0  0  0
  -17.7713   35.9813  -20.8118 N   0  0  0  0  0  0  0  0  0  0  0  0
  1  2  2  0
  2  3  1  0
  3  4  1  0
  4  5  1  0
  5  6  1  6
  5  7  1  0
  7  8  1  0
  8  9  1  0
  9 10  1  0
 10 11  1  0
 11 12  2  0
 12 13  1  0
 13 14  2  0
 14 15  1  0
 15 16  2  0
 16 17  1  0
  2 18  1  0
 18 19  2  0
 19 20  1  0
 20 21  1  0
 21 22  1  0
 22 23  1  0
 23 24  1  0
 24 25  1  0
 20 26  2  0
 26 27  1  0
 27 28  2  0
 17  8  1  0
 28 18  1  0
 16 11  1  0
 25 22  1  0
M  END
$$$$
