
     RDKit          3D

 33 37  0  0  0  0  0  0  0  0999 V2000
  -20.6735   35.0222  -25.2787 C   0  0  0  0  0  0  0  0  0  0  0  0
  -20.9370   35.2140  -23.8376 C   0  0  0  0  0  0  0  0  0  0  0  0
  -21.5298   34.2979  -23.2243 O   0  0  0  0  0  0  0  0  0  0  0  0
  -20.5455   36.4042  -23.1020 C   0  0  0  0  0  0  0  0  0  0  0  0
  -19.7111   36.2718  -22.0129 C   0  0  0  0  0  0  0  0  0  0  0  0
  -19.2069   34.9500  -21.5776 C   0  0  0  0  0  0  0  0  0  0  0  0
  -19.3109   37.3931  -21.2775 C   0  0  0  0  0  0  0  0  0  0  0  0
  -18.4741   37.2670  -20.1828 C   0  0  0  0  0  0  0  0  0  0  0  0
  -18.1407   38.3745  -19.5377 N   0  0  0  0  0  0  0  0  0  0  0  0
  -18.5826   39.5825  -19.9098 C   0  0  0  0  0  0  0  0  0  0  0  0
  -18.1695   40.7201  -19.1506 N   0  0  0  0  0  0  0  0  0  0  0  0
  -18.1713   42.0180  -19.7245 C   0  0  0  0  0  0  0  0  0  0  0  0
  -19.1677   42.4495  -20.5549 C   0  0  0  0  0  0  0  0  0  0  0  0
  -19.1106   43.7351  -21.0869 C   0  0  0  0  0  0  0  0  0  0  0  0
  -18.0820   44.5849  -20.8027 C   0  0  0  0  0  0  0  0  0  0  0  0
  -17.9797   45.8986  -21.3195 N   0  0  0  0  0  0  0  0  0  0  0  0
  -16.7541   46.6369  -21.3284 C   0  0  0  0  0  0  0  0  0  0  0  0
  -17.0216   47.9389  -20.5759 C   0  0  0  0  0  0  0  0  0  0  0  0
  -18.1771   48.6380  -21.0450 N   0  0  0  0  0  0  0  0  0  0  0  0
  -18.8494   48.0034  -22.1519 C   0  0  0  0  0  0  0  0  0  0  0  0
  -19.1543   46.5478  -21.8712 C   0  0  0  0  0  0  0  0  0  0  0  0
  -17.0964   44.0948  -19.9534 C   0  0  0  0  0  0  0  0  0  0  0  0
  -17.1461   42.8606  -19.4392 N   0  0  0  0  0  0  0  0  0  0  0  0
  -19.3929   39.6913  -20.9725 N   0  0  0  0  0  0  0  0  0  0  0  0
  -19.7820   38.6255  -21.6843 C   0  0  0  0  0  0  0  0  0  0  0  0
  -20.6036   38.7345  -22.7607 N   0  0  0  0  0  0  0  0  0  0  0  0
  -21.0695   40.0237  -23.1528 C   0  0  0  0  0  0  0  0  0  0  0  0
  -19.9614   41.0258  -23.3631 C   0  0  0  0  0  0  0  0  0  0  0  0
  -20.1898   42.1668  -22.4181 C   0  0  0  0  0  0  0  0  0  0  0  0
  -21.3941   41.8362  -21.5964 C   0  0  0  0  0  0  0  0  0  0  0  0
  -22.0488   40.6242  -22.1733 C   0  0  0  0  0  0  0  0  0  0  0  0
  -20.9945   37.6520  -23.4766 C   0  0  0  0  0  0  0  0  0  0  0  0
  -21.7567   37.8348  -24.4605 O   0  0  0  0  0  0  0  0  0  0  0  0
  1  2  1  0
  2  3  2  0
  2  4  1  0
  4  5  2  0
  5  6  1  0
  5  7  1  0
  7  8  2  0
  8  9  1  0
  9 10  2  0
 10 11  1  0
 11 12  1  0
 12 13  2  0
 13 14  1  0
 14 15  2  0
 15 16  1  0
 16 17  1  0
 17 18  1  0
 18 19  1  0
 19 20  1  0
 20 21  1  0
 15 22  1  0
 22 23  2  0
 10 24  1  0
 24 25  2  0
 25 26  1  0
 26 27  1  0
 27 28  1  0
 28 29  1  0
 29 30  1  0
 30 31  1  0
 26 32  1  0
 32 33  2  0
 32  4  1  0
 25  7  1  0
 31 27  1  0
 23 12  1  0
 21 16  1  0
M  END
$$$$
