
     RDKit          3D

 18 17  0  0  0  0  0  0  0  0999 V2000
  -23.3535   30.4703  -36.1672 C   0  0  0  0  0  0  0  0  0  0  0  0
  -24.7520   30.1931  -36.2119 C   0  0  0  0  0  0  0  0  0  0  0  0
  -26.0889   29.9194  -36.2770 C   0  0  0  0  0  0  0  0  0  0  0  0
  -26.6683   29.0688  -35.3396 N   0  0  0  0  0  0  0  0  0  0  0  0
  -26.6166   29.8228  -33.9884 C   0  0  0  0  0  0  0  0  0  0  0  0
  -26.1716   27.7700  -35.0965 C   0  0  0  0  0  0  0  0  0  0  0  0
  -26.1450   27.0374  -36.4702 C   0  0  0  0  0  0  0  0  0  0  0  0
  -25.7643   25.6381  -36.1421 C   0  0  0  0  0  0  0  0  0  0  0  0
  -27.0041   25.1053  -35.3504 O   0  0  0  0  0  0  0  0  0  0  0  0
  -28.0651   24.7917  -36.2113 C   0  0  0  0  0  0  0  0  0  0  0  0
  -28.5233   24.6891  -37.3728 C   0  0  0  0  0  0  0  0  0  0  0  0
  -29.8074   24.3560  -37.8246 C   0  0  0  0  0  0  0  0  0  0  0  0
  -30.7761   24.0747  -36.8060 C   0  0  0  0  0  0  0  0  0  0  0  0
  -32.3712   23.6255  -37.1891 Cl  0  0  0  0  0  0  0  0  0  0  0  0
  -30.3612   24.1386  -35.4301 C   0  0  0  0  0  0  0  0  0  0  0  0
  -29.1036   24.4438  -35.1958 C   0  0  0  0  0  0  0  0  0  0  0  0
  -28.4357   24.2216  -33.4981 Cl  0  0  0  0  0  0  0  0  0  0  0  0
  -27.6128   26.4449  -35.9057 Cl  0  0  0  0  0  0  0  0  0  0  0  0
  1  2  3  0
  2  3  1  0
  3  4  1  0
  4  5  1  0
  4  6  1  0
  6  7  1  0
  7  8  1  0
  8  9  1  0
  9 10  1  0
 10 11  2  0
 11 12  1  0
 12 13  2  0
 13 14  1  0
 13 15  1  0
 15 16  2  0
 16 17  1  0
 16 10  1  0
M  END
$$$$
