
     RDKit          3D

 35 39  0  0  0  0  0  0  0  0999 V2000
  -13.9601   41.6804  -15.4681 C   0  0  0  0  0  0  0  0  0  0  0  0
  -14.7886   42.8212  -16.0159 C   0  0  0  0  0  0  0  0  0  0  0  0
  -14.7947   42.7623  -17.4074 O   0  0  0  0  0  0  0  0  0  0  0  0
  -15.5166   43.6491  -18.1728 C   0  0  0  0  0  0  0  0  0  0  0  0
  -15.3740   45.0082  -18.0903 C   0  0  0  0  0  0  0  0  0  0  0  0
  -16.1004   45.9111  -18.8582 C   0  0  0  0  0  0  0  0  0  0  0  0
  -15.9327   47.2981  -18.7262 N   0  0  0  0  0  0  0  0  0  0  0  0
  -15.6884   47.9974  -17.4695 C   0  0  0  0  0  0  0  0  0  0  0  0
  -14.7482   49.1726  -17.6562 C   0  0  0  0  0  0  0  0  0  0  0  0
  -15.2971   50.1434  -18.6842 C   0  0  0  0  0  0  0  0  0  0  0  0
  -14.3593   50.5812  -19.5853 O   0  0  0  0  0  0  0  0  0  0  0  0
  -16.4724   49.5258  -19.4229 C   0  0  0  0  0  0  0  0  0  0  0  0
  -15.9762   48.1499  -19.8959 C   0  0  0  0  0  0  0  0  0  0  0  0
  -17.0000   45.3748  -19.7352 C   0  0  0  0  0  0  0  0  0  0  0  0
  -17.1530   43.9827  -19.8260 C   0  0  0  0  0  0  0  0  0  0  0  0
  -16.4366   43.0891  -19.0685 C   0  0  0  0  0  0  0  0  0  0  0  0
  -16.5773   41.6848  -19.1477 N   0  0  0  0  0  0  0  0  0  0  0  0
  -17.5467   40.9393  -19.8253 C   0  0  0  0  0  0  0  0  0  0  0  0
  -17.7109   39.6363  -19.6036 N   0  0  0  0  0  0  0  0  0  0  0  0
  -18.6184   38.8722  -20.2194 C   0  0  0  0  0  0  0  0  0  0  0  0
  -19.4359   39.4639  -21.1404 C   0  0  0  0  0  0  0  0  0  0  0  0
  -19.2833   40.8343  -21.3920 C   0  0  0  0  0  0  0  0  0  0  0  0
  -18.3688   41.5327  -20.7509 N   0  0  0  0  0  0  0  0  0  0  0  0
  -19.9977   41.6828  -22.2918 N   0  0  0  0  0  0  0  0  0  0  0  0
  -19.4125   42.8512  -22.7848 C   0  0  0  0  0  0  0  0  0  0  0  0
  -19.6230   44.1456  -22.1007 C   0  0  0  0  0  0  0  0  0  0  0  0
  -18.6130   44.9977  -22.9157 C   0  0  0  0  0  0  0  0  0  0  0  0
  -18.8432   44.5164  -24.3499 C   0  0  0  0  0  0  0  0  0  0  0  0
  -19.6210   43.1980  -24.2300 C   0  0  0  0  0  0  0  0  0  0  0  0
  -21.3662   41.3655  -22.7396 C   0  0  0  0  0  0  0  0  0  0  0  0
  -21.3696   40.1366  -23.6237 C   0  0  0  0  0  0  0  0  0  0  0  0
  -21.3533   38.9395  -22.7481 C   0  0  0  0  0  0  0  0  0  0  0  0
  -22.2787   38.0941  -22.8422 O   0  0  0  0  0  0  0  0  0  0  0  0
  -20.3810   38.5973  -21.7619 N   0  0  0  0  0  0  0  0  0  0  0  0
  -20.3171   37.2266  -21.3197 C   0  0  0  0  0  0  0  0  0  0  0  0
  1  2  1  0
  2  3  1  0
  3  4  1  0
  4  5  2  0
  5  6  1  0
  6  7  1  0
  7  8  1  0
  8  9  1  0
  9 10  1  0
 10 11  1  0
 10 12  1  0
 12 13  1  0
  6 14  2  0
 14 15  1  0
 15 16  2  0
 16 17  1  0
 17 18  1  0
 18 19  2  0
 19 20  1  0
 20 21  2  0
 21 22  1  0
 22 23  2  0
 22 24  1  0
 24 25  1  0
 25 26  1  0
 26 27  1  0
 27 28  1  0
 28 29  1  0
 24 30  1  0
 30 31  1  0
 31 32  1  0
 32 33  2  0
 32 34  1  0
 34 35  1  0
 16  4  1  0
 23 18  1  0
 29 25  1  0
 13  7  1  0
 34 21  1  0
M  END
$$$$
