
     RDKit          3D

 30 31  0  0  0  0  0  0  0  0999 V2000
  -25.1969   17.1096  -19.6368 N   0  0  0  0  0  0  0  0  0  0  0  0
  -25.2062   16.2311  -20.4309 C   0  0  0  0  0  0  0  0  0  0  0  0
  -25.2007   15.1837  -21.3984 C   0  0  0  0  0  0  0  0  0  0  0  0
  -26.3419   14.8903  -22.0970 C   0  0  0  0  0  0  0  0  0  0  0  0
  -27.5462   15.5862  -21.8931 O   0  0  0  0  0  0  0  0  0  0  0  0
  -28.5045   15.0117  -21.0307 C   0  0  0  0  0  0  0  0  0  0  0  0
  -28.9582   15.7526  -19.9645 C   0  0  0  0  0  0  0  0  0  0  0  0
  -29.8905   15.1936  -19.1250 C   0  0  0  0  0  0  0  0  0  0  0  0
  -30.3486   13.9162  -19.3635 C   0  0  0  0  0  0  0  0  0  0  0  0
  -29.9174   13.1432  -20.4217 C   0  0  0  0  0  0  0  0  0  0  0  0
  -30.3859   11.8596  -20.6516 O   0  0  0  0  0  0  0  0  0  0  0  0
  -31.9532   11.6861  -21.2910 S   0  0  0  0  0  6  0  0  0  0  0  0
  -32.1327   10.3037  -21.8186 O   0  0  0  0  0  0  0  0  0  0  0  0
  -32.0653   12.6229  -22.4637 O   0  0  0  0  0  0  0  0  0  0  0  0
  -33.1849   12.1762  -20.1201 C   0  0  0  0  0  0  0  0  0  0  0  0
  -33.5142   11.1223  -19.1201 C   0  0  0  0  0  0  0  0  0  0  0  0
  -34.3064   11.5472  -17.9411 C   0  0  0  0  0  0  0  0  0  0  0  0
  -34.5755   10.4326  -16.9573 C   0  0  0  0  0  0  0  0  0  0  0  0
  -35.2710   10.7963  -15.8517 F   0  0  0  0  0  0  0  0  0  0  0  0
  -35.2050    9.3793  -17.6111 F   0  0  0  0  0  0  0  0  0  0  0  0
  -33.3480    9.9144  -16.5216 F   0  0  0  0  0  0  0  0  0  0  0  0
  -28.9765   13.7394  -21.2484 C   0  0  0  0  0  0  0  0  0  0  0  0
  -26.2624   13.8571  -23.0350 C   0  0  0  0  0  0  0  0  0  0  0  0
  -25.0901   13.1686  -23.2442 C   0  0  0  0  0  0  0  0  0  0  0  0
  -23.9471   13.4776  -22.5302 C   0  0  0  0  0  0  0  0  0  0  0  0
  -24.0097   14.4933  -21.6022 C   0  0  0  0  0  0  0  0  0  0  0  0
  -22.8130   14.8638  -20.8088 C   0  0  0  0  0  0  0  0  0  0  0  0
  -22.9572   14.5095  -19.4699 F   0  0  0  0  0  0  0  0  0  0  0  0
  -21.6751   14.2416  -21.2858 F   0  0  0  0  0  0  0  0  0  0  0  0
  -22.6582   16.2347  -20.8357 F   0  0  0  0  0  0  0  0  0  0  0  0
  1  2  3  0
  2  3  1  0
  3  4  2  0
  4  5  1  0
  5  6  1  0
  6  7  2  0
  7  8  1  0
  8  9  2  0
  9 10  1  0
 10 11  1  0
 11 12  1  0
 12 13  2  0
 12 14  2  0
 12 15  1  0
 15 16  1  0
 16 17  1  0
 17 18  1  0
 18 19  1  0
 18 20  1  0
 18 21  1  0
 10 22  2  0
  4 23  1  0
 23 24  2  0
 24 25  1  0
 25 26  2  0
 26 27  1  0
 27 28  1  0
 27 29  1  0
 27 30  1  0
 26  3  1  0
 22  6  1  0
M  END
$$$$
