
     RDKit          3D

 26 29  0  0  0  0  0  0  0  0999 V2000
  -21.0996   20.6642  -33.8952 O   0  0  0  0  0  0  0  0  0  0  0  0
  -22.1839   20.4111  -34.4878 C   0  0  0  0  0  0  0  0  0  0  0  0
  -23.3567   20.6825  -33.7971 O   0  0  0  0  0  0  0  0  0  0  0  0
  -22.2871   19.8566  -35.8393 C   0  0  0  0  0  0  0  0  0  0  0  0
  -21.0417   19.9221  -36.5747 N   0  0  0  0  0  0  0  0  0  0  0  0
  -20.5348   20.9334  -37.2838 C   0  0  0  0  0  0  0  0  0  0  0  0
  -19.3132   20.5903  -37.8346 C   0  0  0  0  0  0  0  0  0  0  0  0
  -18.4426   21.4424  -38.6829 C   0  0  0  0  0  0  0  0  0  0  0  0
  -19.3538   22.3592  -39.4974 C   0  0  0  0  0  0  0  0  0  0  0  0
  -19.4538   23.3333  -40.0725 N   0  0  0  0  0  0  0  0  0  0  0  0
  -20.4843   23.8599  -40.7126 C   0  0  0  0  0  0  0  0  0  0  0  0
  -20.5752   25.0734  -41.4177 C   0  0  0  0  0  0  0  0  0  0  0  0
  -19.5373   25.9317  -41.5441 F   0  0  0  0  0  0  0  0  0  0  0  0
  -21.7674   25.4065  -42.0049 C   0  0  0  0  0  0  0  0  0  0  0  0
  -21.8152   26.6041  -42.6869 F   0  0  0  0  0  0  0  0  0  0  0  0
  -22.9145   24.6604  -41.9770 C   0  0  0  0  0  0  0  0  0  0  0  0
  -22.8303   23.4481  -41.2747 C   0  0  0  0  0  0  0  0  0  0  0  0
  -23.8850   22.6032  -41.1607 F   0  0  0  0  0  0  0  0  0  0  0  0
  -21.6233   23.1167  -40.6835 C   0  0  0  0  0  0  0  0  0  0  0  0
  -21.1034   21.6685  -39.7033 S   0  0  0  0  0  0  0  0  0  0  0  0
  -19.0891   19.2967  -37.4232 C   0  0  0  0  0  0  0  0  0  0  0  0
  -18.0179   18.4485  -37.6789 C   0  0  0  0  0  0  0  0  0  0  0  0
  -18.0054   17.1727  -37.1554 C   0  0  0  0  0  0  0  0  0  0  0  0
  -19.0752   16.7596  -36.3758 C   0  0  0  0  0  0  0  0  0  0  0  0
  -20.1328   17.6152  -36.1308 C   0  0  0  0  0  0  0  0  0  0  0  0
  -20.1668   18.9031  -36.6472 C   0  0  0  0  0  0  0  0  0  0  0  0
  1  2  2  0
  2  3  1  0
  2  4  1  0
  4  5  1  0
  5  6  1  0
  6  7  2  0
  7  8  1  0
  8  9  1  0
  9 10  2  0
 10 11  1  0
 11 12  2  0
 12 13  1  0
 12 14  1  0
 14 15  1  0
 14 16  2  0
 16 17  1  0
 17 18  1  0
 17 19  2  0
 19 20  1  0
  7 21  1  0
 21 22  2  0
 22 23  1  0
 23 24  2  0
 24 25  1  0
 25 26  2  0
 26  5  1  0
 20  9  1  0
 26 21  1  0
 19 11  1  0
M  END
$$$$
