
     RDKit          3D

 27 30  0  0  0  0  0  0  0  0999 V2000
  -17.2327   37.3412  -22.7089 C   0  0  0  0  0  0  0  0  0  0  0  0
  -17.7608   38.1476  -23.8806 C   0  0  0  0  0  0  0  0  0  0  0  0
  -18.8114   37.2936  -24.5669 C   0  0  0  0  0  0  0  0  0  0  0  0
  -18.3579   39.4205  -23.3873 C   0  0  0  0  0  0  0  0  0  0  0  0
  -18.7797   39.6116  -22.1181 C   0  0  0  0  0  0  0  0  0  0  0  0
  -19.3444   40.8079  -21.6341 C   0  0  0  0  0  0  0  0  0  0  0  0
  -19.8012   40.8549  -20.2512 C   0  0  0  0  0  0  0  0  0  0  0  0
  -20.9025   40.1346  -19.8213 N   0  0  0  0  0  0  0  0  0  0  0  0
  -21.0686   40.3001  -18.5471 N   0  0  0  0  0  0  0  0  0  0  0  0
  -20.1105   41.1049  -18.1303 C   0  0  0  0  0  0  0  0  0  0  0  0
  -19.9611   41.4853  -16.9431 O   0  0  0  0  0  0  0  0  0  0  0  0
  -19.3115   41.4533  -19.2031 N   0  0  0  0  0  0  0  0  0  0  0  0
  -18.1679   42.2784  -19.0242 C   0  0  0  0  0  0  0  0  0  0  0  0
  -16.9727   41.7716  -18.5140 C   0  0  0  0  0  0  0  0  0  0  0  0
  -15.8426   42.5449  -18.3718 C   0  0  0  0  0  0  0  0  0  0  0  0
  -15.8420   43.8814  -18.7347 C   0  0  0  0  0  0  0  0  0  0  0  0
  -17.0111   44.4007  -19.2402 C   0  0  0  0  0  0  0  0  0  0  0  0
  -16.7473   45.7288  -19.5187 C   0  0  0  0  0  0  0  0  0  0  0  0
  -15.4366   45.9618  -19.1735 C   0  0  0  0  0  0  0  0  0  0  0  0
  -14.8773   44.8395  -18.6943 N   0  0  0  0  0  0  0  0  0  0  0  0
  -13.5043   44.6670  -18.2195 C   0  0  0  0  0  0  0  0  0  0  0  0
  -18.1546   43.6106  -19.3820 C   0  0  0  0  0  0  0  0  0  0  0  0
  -19.4506   41.8049  -22.5490 C   0  0  0  0  0  0  0  0  0  0  0  0
  -19.9822   43.0407  -22.2705 O   0  0  0  0  0  0  0  0  0  0  0  0
  -19.0217   41.6425  -23.8783 C   0  0  0  0  0  0  0  0  0  0  0  0
  -18.4751   40.4504  -24.2980 C   0  0  0  0  0  0  0  0  0  0  0  0
  -18.0601   40.3196  -25.6177 O   0  0  0  0  0  0  0  0  0  0  0  0
  1  2  1  0
  2  3  1  0
  2  4  1  0
  4  5  2  0
  5  6  1  0
  6  7  1  0
  7  8  2  0
  8  9  1  0
  9 10  1  0
 10 11  2  0
 10 12  1  0
 12 13  1  0
 13 14  2  0
 14 15  1  0
 15 16  2  0
 16 17  1  0
 17 18  1  0
 18 19  2  0
 19 20  1  0
 20 21  1  0
 17 22  2  0
  6 23  2  0
 23 24  1  0
 23 25  1  0
 25 26  2  0
 26 27  1  0
 26  4  1  0
 12  7  1  0
 22 13  1  0
 20 16  1  0
M  END
$$$$
