
     RDKit          3D

 31 34  0  0  0  0  0  0  0  0999 V2000
  -18.9093   37.4303  -28.9785 N   0  0  0  0  0  0  0  0  0  0  0  0
  -19.6362   38.2172  -28.5907 C   0  0  0  0  0  0  0  0  0  0  0  0
  -20.5627   39.2578  -28.0891 C   0  0  0  0  0  0  0  0  0  0  0  0
  -20.4904   39.2197  -26.6221 N   0  0  0  0  0  0  0  0  0  0  0  0
  -19.4397   39.8441  -25.9140 C   0  0  0  0  0  0  0  0  0  0  0  0
  -18.5054   40.3986  -26.5246 O   0  0  0  0  0  0  0  0  0  0  0  0
  -19.4509   39.8430  -24.4616 C   0  0  0  0  0  0  0  0  0  0  0  0
  -20.5605   39.4000  -23.7881 C   0  0  0  0  0  0  0  0  0  0  0  0
  -20.5695   39.4485  -22.4179 C   0  0  0  0  0  0  0  0  0  0  0  0
  -19.4757   39.9361  -21.6971 C   0  0  0  0  0  0  0  0  0  0  0  0
  -19.5814   39.9406  -20.2302 C   0  0  0  0  0  0  0  0  0  0  0  0
  -20.0405   38.8709  -19.5284 C   0  0  0  0  0  0  0  0  0  0  0  0
  -20.0800   38.9122  -18.1405 C   0  0  0  0  0  0  0  0  0  0  0  0
  -19.6551   40.0352  -17.5256 N   0  0  0  0  0  0  0  0  0  0  0  0
  -19.2030   41.0969  -18.1705 C   0  0  0  0  0  0  0  0  0  0  0  0
  -18.7550   42.2941  -17.5463 N   0  0  0  0  0  0  0  0  0  0  0  0
  -17.5826   42.9724  -17.9222 C   0  0  0  0  0  0  0  0  0  0  0  0
  -17.1230   44.1525  -17.4007 C   0  0  0  0  0  0  0  0  0  0  0  0
  -15.9647   44.7950  -17.8290 C   0  0  0  0  0  0  0  0  0  0  0  0
  -15.2257   44.2313  -18.8294 C   0  0  0  0  0  0  0  0  0  0  0  0
  -14.0365   44.7863  -19.3479 N   0  0  0  0  0  0  0  0  0  0  0  0
  -13.1911   44.1107  -20.3048 C   0  0  0  0  0  0  0  0  0  0  0  0
  -11.7718   44.2342  -19.7243 C   0  0  0  0  0  0  0  0  0  0  0  0
  -11.3681   45.5331  -19.5685 O   0  0  0  0  0  0  0  0  0  0  0  0
  -12.3603   46.4811  -19.6598 C   0  0  0  0  0  0  0  0  0  0  0  0
  -13.6186   46.1034  -18.9194 C   0  0  0  0  0  0  0  0  0  0  0  0
  -15.6787   43.0355  -19.3670 C   0  0  0  0  0  0  0  0  0  0  0  0
  -16.8068   42.4087  -18.9506 C   0  0  0  0  0  0  0  0  0  0  0  0
  -19.1755   41.0228  -19.5350 N   0  0  0  0  0  0  0  0  0  0  0  0
  -18.3720   40.3738  -22.3710 C   0  0  0  0  0  0  0  0  0  0  0  0
  -18.3599   40.3272  -23.7459 C   0  0  0  0  0  0  0  0  0  0  0  0
  1  2  3  0
  2  3  1  0
  3  4  1  0
  4  5  1  0
  5  6  2  0
  5  7  1  0
  7  8  2  0
  8  9  1  0
  9 10  2  0
 10 11  1  0
 11 12  2  0
 12 13  1  0
 13 14  2  0
 14 15  1  0
 15 16  1  0
 16 17  1  0
 17 18  2  0
 18 19  1  0
 19 20  2  0
 20 21  1  0
 21 22  1  0
 22 23  1  0
 23 24  1  0
 24 25  1  0
 25 26  1  0
 20 27  1  0
 27 28  2  0
 15 29  2  0
 10 30  1  0
 30 31  2  0
 31  7  1  0
 29 11  1  0
 28 17  1  0
 26 21  1  0
M  END
$$$$
