
     RDKit          3D

 18 19  0  0  0  0  0  0  0  0999 V2000
  -10.6872   13.1343  -27.1042 C   0  0  0  0  0  0  0  0  0  0  0  0
  -11.5327   11.8732  -27.3360 C   0  0  0  0  0  0  0  0  0  0  0  0
  -10.7176   10.9475  -28.2046 C   0  0  0  0  0  0  0  0  0  0  0  0
  -11.7515   11.2462  -26.0068 C   0  0  0  0  0  0  0  0  0  0  0  0
  -12.7269   12.2887  -28.0583 C   0  0  0  0  0  0  0  0  0  0  0  0
  -12.5544   12.8487  -29.3166 C   0  0  0  0  0  0  0  0  0  0  0  0
  -13.6140   13.2716  -30.0765 C   0  0  0  0  0  0  0  0  0  0  0  0
  -14.9192   13.1375  -29.5735 C   0  0  0  0  0  0  0  0  0  0  0  0
  -15.9500   13.5780  -30.3768 O   0  0  0  0  0  0  0  0  0  0  0  0
  -17.2083   13.8907  -29.9009 C   0  0  0  0  0  0  0  0  0  0  0  0
  -17.0870   15.2641  -29.2274 C   0  0  0  0  0  0  0  0  0  0  0  0
  -16.9782   16.2884  -30.3317 C   0  0  0  0  0  0  0  0  0  0  0  0
  -18.3924   16.5038  -30.8771 C   0  0  0  0  0  0  0  0  0  0  0  0
  -19.0949   15.1576  -30.9353 C   0  0  0  0  0  0  0  0  0  0  0  0
  -18.1164   14.0278  -31.1227 C   0  0  0  0  0  0  0  0  0  0  0  0
  -18.8331   12.8493  -31.2509 O   0  0  0  0  0  0  0  0  0  0  0  0
  -15.0668   12.5791  -28.3226 C   0  0  0  0  0  0  0  0  0  0  0  0
  -14.0050   12.1664  -27.5854 C   0  0  0  0  0  0  0  0  0  0  0  0
  1  2  1  0
  2  3  1  0
  2  4  1  0
  2  5  1  0
  5  6  2  0
  6  7  1  0
  7  8  2  0
  8  9  1  0
  9 10  1  0
 10 11  1  0
 11 12  1  0
 12 13  1  0
 13 14  1  0
 14 15  1  0
 15 16  1  0
  8 17  1  0
 17 18  2  0
 18  5  1  0
 15 10  1  0
M  END
$$$$
