
     RDKit          3D

 25 28  0  0  0  0  0  0  0  0999 V2000
  -17.6725   39.4979  -23.3443 C   0  0  0  0  0  0  0  0  0  0  0  0
  -18.3434   39.6897  -22.0446 C   0  0  0  0  0  0  0  0  0  0  0  0
  -18.1321   40.9166  -21.4226 C   0  0  0  0  0  0  0  0  0  0  0  0
  -17.4324   42.0673  -21.7358 C   0  0  0  0  0  0  0  0  0  0  0  0
  -16.7692   42.2309  -22.7835 O   0  0  0  0  0  0  0  0  0  0  0  0
  -17.5898   42.9552  -20.7376 N   0  0  0  0  0  0  0  0  0  0  0  0
  -17.0393   44.2590  -20.6614 C   0  0  0  0  0  0  0  0  0  0  0  0
  -15.9314   44.6190  -21.4182 C   0  0  0  0  0  0  0  0  0  0  0  0
  -15.3688   45.8726  -21.3720 C   0  0  0  0  0  0  0  0  0  0  0  0
  -15.9149   46.8247  -20.5446 C   0  0  0  0  0  0  0  0  0  0  0  0
  -17.0097   46.5097  -19.7802 C   0  0  0  0  0  0  0  0  0  0  0  0
  -17.5660   45.2334  -19.8408 C   0  0  0  0  0  0  0  0  0  0  0  0
  -18.3569   42.3842  -19.8362 N   0  0  0  0  0  0  0  0  0  0  0  0
  -18.7127   41.1403  -20.2103 C   0  0  0  0  0  0  0  0  0  0  0  0
  -19.4813   40.1428  -19.6565 C   0  0  0  0  0  0  0  0  0  0  0  0
  -19.6574   38.9488  -20.3151 C   0  0  0  0  0  0  0  0  0  0  0  0
  -20.3778   38.0950  -19.7264 O   0  0  0  0  0  0  0  0  0  0  0  0
  -19.0870   38.7039  -21.5281 N   0  0  0  0  0  0  0  0  0  0  0  0
  -19.3293   37.4300  -22.1534 C   0  0  0  0  0  0  0  0  0  0  0  0
  -20.5613   37.3634  -22.9699 C   0  0  0  0  0  0  0  0  0  0  0  0
  -21.0335   36.1759  -23.4684 C   0  0  0  0  0  0  0  0  0  0  0  0
  -22.2023   36.1108  -24.2389 C   0  0  0  0  0  0  0  0  0  0  0  0
  -22.8890   37.2743  -24.4974 C   0  0  0  0  0  0  0  0  0  0  0  0
  -22.4037   38.4164  -23.9972 N   0  0  0  0  0  0  0  0  0  0  0  0
  -21.2743   38.5067  -23.2483 C   0  0  0  0  0  0  0  0  0  0  0  0
  1  2  1  0
  2  3  2  0
  3  4  1  0
  4  5  2  0
  4  6  1  0
  6  7  1  0
  7  8  2  0
  8  9  1  0
  9 10  2  0
 10 11  1  0
 11 12  2  0
  6 13  1  0
 13 14  1  0
 14 15  2  0
 15 16  1  0
 16 17  2  0
 16 18  1  0
 18 19  1  0
 19 20  1  0
 20 21  2  0
 21 22  1  0
 22 23  2  0
 23 24  1  0
 24 25  2  0
 18  2  1  0
 25 20  1  0
 14  3  1  0
 12  7  1  0
M  END
$$$$
