
     RDKit          3D

 20 22  0  0  0  0  0  0  0  0999 V2000
  -20.0230   17.6104  -33.2538 O   0  0  0  0  0  0  0  0  0  0  0  0
  -19.4179   16.6157  -32.7831 C   0  0  0  0  0  0  0  0  0  0  0  0
  -18.2330   16.2180  -33.3704 C   0  0  0  0  0  0  0  0  0  0  0  0
  -17.6227   16.8753  -34.5120 C   0  0  0  0  0  0  0  0  0  0  0  0
  -17.9841   16.5416  -35.8003 C   0  0  0  0  0  0  0  0  0  0  0  0
  -17.3968   17.1731  -36.8701 C   0  0  0  0  0  0  0  0  0  0  0  0
  -16.4437   18.1437  -36.6806 C   0  0  0  0  0  0  0  0  0  0  0  0
  -15.8724   18.7602  -37.7946 O   0  0  0  0  0  0  0  0  0  0  0  0
  -16.0947   18.4649  -35.3992 C   0  0  0  0  0  0  0  0  0  0  0  0
  -15.1205   19.4572  -35.2139 O   0  0  0  0  0  0  0  0  0  0  0  0
  -16.6681   17.8468  -34.3020 C   0  0  0  0  0  0  0  0  0  0  0  0
  -17.6039   15.1229  -32.8216 C   0  0  0  0  0  0  0  0  0  0  0  0
  -18.1203   14.4882  -31.7792 O   0  0  0  0  0  0  0  0  0  0  0  0
  -19.2403   14.8665  -31.2265 C   0  0  0  0  0  0  0  0  0  0  0  0
  -19.7253   14.1614  -30.1413 C   0  0  0  0  0  0  0  0  0  0  0  0
  -20.9068   14.5461  -29.5443 C   0  0  0  0  0  0  0  0  0  0  0  0
  -21.3706   13.8327  -28.4684 O   0  0  0  0  0  0  0  0  0  0  0  0
  -21.6427   15.6306  -29.9948 C   0  0  0  0  0  0  0  0  0  0  0  0
  -21.1327   16.3127  -31.0782 C   0  0  0  0  0  0  0  0  0  0  0  0
  -19.9579   15.9567  -31.6977 C   0  0  0  0  0  0  0  0  0  0  0  0
  1  2  2  0
  2  3  1  0
  3  4  1  0
  4  5  2  0
  5  6  1  0
  6  7  2  0
  7  8  1  0
  7  9  1  0
  9 10  1  0
  9 11  2  0
  3 12  2  0
 12 13  1  0
 13 14  1  0
 14 15  2  0
 15 16  1  0
 16 17  1  0
 16 18  2  0
 18 19  1  0
 19 20  2  0
 20  2  1  0
 11  4  1  0
 20 14  1  0
M  END
$$$$
