
     RDKit          3D

 12 12  0  0  0  0  0  0  0  0999 V2000
  -27.7827   16.7106  -23.7049 O   0  0  0  0  0  0  0  0  0  0  0  0
  -26.7585   16.3201  -23.0937 C   0  0  0  0  0  0  0  0  0  0  0  0
  -26.1368   17.2159  -22.2391 O   0  0  0  0  0  0  0  0  0  0  0  0
  -26.2662   14.9641  -23.2986 C   0  0  0  0  0  0  0  0  0  0  0  0
  -24.9945   14.5976  -22.9158 C   0  0  0  0  0  0  0  0  0  0  0  0
  -24.4911   13.3335  -23.0897 C   0  0  0  0  0  0  0  0  0  0  0  0
  -22.5461   12.8498  -22.4818 I   0  0  0  0  0  0  0  0  0  0  0  0
  -25.2699   12.3486  -23.6760 C   0  0  0  0  0  0  0  0  0  0  0  0
  -24.5607   10.3955  -23.9711 I   0  0  0  0  0  0  0  0  0  0  0  0
  -26.5424   12.7135  -24.0597 C   0  0  0  0  0  0  0  0  0  0  0  0
  -27.7331   11.2034  -24.9572 I   0  0  0  0  0  0  0  0  0  0  0  0
  -27.0512   13.9928  -23.8833 C   0  0  0  0  0  0  0  0  0  0  0  0
  1  2  2  0
  2  3  1  0
  2  4  1  0
  4  5  2  0
  5  6  1  0
  6  7  1  0
  6  8  2  0
  8  9  1  0
  8 10  1  0
 10 11  1  0
 10 12  2  0
 12  4  1  0
M  END
$$$$
