
     RDKit          3D

 23 25  0  0  0  0  0  0  0  0999 V2000
  -23.1284   17.2471  -35.2307 C   0  0  0  0  0  0  0  0  0  0  0  0
  -22.4682   17.9647  -34.0635 C   0  0  0  0  0  0  0  0  0  0  0  0
  -21.9791   19.2949  -34.5416 C   0  0  0  0  0  0  0  0  0  0  0  0
  -23.5176   18.1037  -32.9804 C   0  0  0  0  0  0  0  0  0  0  0  0
  -21.2968   17.1768  -33.5933 C   0  0  0  0  0  0  0  0  0  0  0  0
  -20.9947   16.0564  -34.1258 O   0  0  0  0  0  0  0  0  0  0  0  0
  -20.4488   17.6055  -32.5409 N   0  0  0  0  0  0  0  0  0  0  0  0
  -19.3145   16.8745  -32.1082 C   0  0  0  0  0  0  0  0  0  0  0  0
  -18.2331   16.8085  -32.9514 C   0  0  0  0  0  0  0  0  0  0  0  0
  -17.0602   16.1081  -32.6141 C   0  0  0  0  0  0  0  0  0  0  0  0
  -16.9857   15.4648  -31.4004 C   0  0  0  0  0  0  0  0  0  0  0  0
  -18.0922   15.5351  -30.5432 C   0  0  0  0  0  0  0  0  0  0  0  0
  -19.2280   16.2287  -30.9003 C   0  0  0  0  0  0  0  0  0  0  0  0
  -18.0192   14.8504  -29.2458 C   0  0  0  0  0  0  0  0  0  0  0  0
  -19.0313   14.9238  -28.4799 O   0  0  0  0  0  0  0  0  0  0  0  0
  -16.8262   14.1148  -28.8565 C   0  0  0  0  0  0  0  0  0  0  0  0
  -16.7549   13.5280  -27.7525 O   0  0  0  0  0  0  0  0  0  0  0  0
  -15.7012   14.0682  -29.7776 C   0  0  0  0  0  0  0  0  0  0  0  0
  -14.5602   13.3796  -29.4349 C   0  0  0  0  0  0  0  0  0  0  0  0
  -13.4803   13.3163  -30.2821 C   0  0  0  0  0  0  0  0  0  0  0  0
  -13.5670   13.9611  -31.4878 C   0  0  0  0  0  0  0  0  0  0  0  0
  -14.7211   14.6641  -31.8473 C   0  0  0  0  0  0  0  0  0  0  0  0
  -15.7885   14.7242  -31.0051 C   0  0  0  0  0  0  0  0  0  0  0  0
  1  2  1  0
  2  3  1  0
  2  4  1  0
  2  5  1  0
  5  6  2  0
  5  7  1  0
  7  8  1  0
  8  9  2  0
  9 10  1  0
 10 11  2  0
 11 12  1  0
 12 13  2  0
 12 14  1  0
 14 15  2  0
 14 16  1  0
 16 17  2  0
 16 18  1  0
 18 19  2  0
 19 20  1  0
 20 21  2  0
 21 22  1  0
 22 23  2  0
 13  8  1  0
 23 18  1  0
 23 11  1  0
M  END
$$$$
