
     RDKit          3D

 32 34  0  0  0  0  0  0  0  0999 V2000
  -48.8622    5.9327  -39.3877 C   0  0  0  0  0  0  0  0  0  0  0  0
  -47.7346    6.0280  -38.3915 C   0  0  0  0  0  0  0  0  0  0  0  0
  -46.5981    5.3192  -38.7527 O   0  0  0  0  0  0  0  0  0  0  0  0
  -45.3565    5.3246  -38.1622 C   0  0  0  0  0  0  0  0  0  0  0  0
  -45.1774    5.6248  -36.8395 C   0  0  0  0  0  0  0  0  0  0  0  0
  -43.9158    5.6246  -36.2972 C   0  0  0  0  0  0  0  0  0  0  0  0
  -43.5621    5.9448  -34.9354 C   0  0  1  0  0  0  0  0  0  0  0  0
  -42.3150    5.4439  -34.3358 C   0  0  0  0  0  0  0  0  0  0  0  0
  -42.2780    4.2447  -33.1084 S   0  0  0  0  0  6  0  0  0  0  0  0
  -42.4417    2.5614  -33.6168 C   0  0  0  0  0  0  0  0  0  0  0  0
  -41.1918    4.4020  -32.0693 O   0  0  0  0  0  0  0  0  0  0  0  0
  -43.5617    4.4567  -32.2296 O   0  0  0  0  0  0  0  0  0  0  0  0
  -43.6865    7.4086  -34.7707 N   0  0  0  0  0  0  0  0  0  0  0  0
  -42.7578    8.4025  -35.1738 C   0  0  0  0  0  0  0  0  0  0  0  0
  -41.6674    8.2293  -35.7970 O   0  0  0  0  0  0  0  0  0  0  0  0
  -43.2309    9.7198  -34.7645 C   0  0  0  0  0  0  0  0  0  0  0  0
  -42.6918   10.9970  -34.9209 C   0  0  0  0  0  0  0  0  0  0  0  0
  -43.3703   12.0894  -34.4231 C   0  0  0  0  0  0  0  0  0  0  0  0
  -44.5738   11.9054  -33.7766 C   0  0  0  0  0  0  0  0  0  0  0  0
  -45.1294   10.6558  -33.6079 C   0  0  0  0  0  0  0  0  0  0  0  0
  -46.3685   10.4689  -32.9419 N   0  0  0  0  0  0  0  0  0  0  0  0
  -47.4804   11.2325  -33.4199 C   0  0  0  0  0  0  0  0  0  0  0  0
  -48.8686   10.7216  -33.4099 C   0  0  0  0  0  0  0  0  0  0  0  0
  -47.2989   12.3974  -33.8764 O   0  0  0  0  0  0  0  0  0  0  0  0
  -44.4473    9.5619  -34.1078 C   0  0  0  0  0  0  0  0  0  0  0  0
  -44.7220    8.1097  -34.1171 C   0  0  0  0  0  0  0  0  0  0  0  0
  -45.7767    7.6773  -33.5746 O   0  0  0  0  0  0  0  0  0  0  0  0
  -42.8527    5.3054  -37.1552 C   0  0  0  0  0  0  0  0  0  0  0  0
  -43.0235    5.0012  -38.4831 C   0  0  0  0  0  0  0  0  0  0  0  0
  -44.2809    5.0050  -39.0134 C   0  0  0  0  0  0  0  0  0  0  0  0
  -44.5534    4.7140  -40.3320 O   0  0  0  0  0  0  0  0  0  0  0  0
  -45.8249    4.7529  -40.9034 C   0  0  0  0  0  0  0  0  0  0  0  0
  1  2  1  0
  2  3  1  0
  3  4  1  0
  4  5  2  0
  5  6  1  0
  6  7  1  0
  7  8  1  6
  8  9  1  0
  9 10  1  0
  9 11  2  0
  9 12  2  0
  7 13  1  0
 13 14  1  0
 14 15  2  0
 14 16  1  0
 16 17  2  0
 17 18  1  0
 18 19  2  0
 19 20  1  0
 20 21  1  0
 21 22  1  0
 22 23  1  0
 22 24  2  0
 20 25  2  0
 25 26  1  0
 26 27  2  0
  6 28  2  0
 28 29  1  0
 29 30  2  0
 30 31  1  0
 31 32  1  0
 30  4  1  0
 26 13  1  0
 25 16  1  0
M  END
$$$$
