
     RDKit          3D

 32 34  0  0  0  0  0  0  0  0999 V2000
  -17.4801   42.9178  -28.6395 C   0  0  0  0  0  0  0  0  0  0  0  0
  -18.3069   43.4645  -27.5157 C   0  0  0  0  0  0  0  0  0  0  0  0
  -19.6625   42.7540  -27.4334 C   0  0  0  0  0  0  0  0  0  0  0  0
  -19.8569   42.3757  -26.0622 N   0  0  0  0  0  0  0  0  0  0  0  0
  -20.3668   40.7274  -25.9626 S   0  0  0  0  0  6  0  0  0  0  0  0
  -21.8552   40.6217  -26.0923 O   0  0  0  0  0  0  0  0  0  0  0  0
  -19.7670   39.8934  -27.0580 O   0  0  0  0  0  0  0  0  0  0  0  0
  -19.8615   40.1097  -24.4370 N   0  0  0  0  0  0  0  0  0  0  0  0
  -19.6373   40.9441  -23.3104 C   0  0  0  0  0  0  0  0  0  0  0  0
  -19.6881   42.2942  -23.3750 N   0  0  0  0  0  0  0  0  0  0  0  0
  -19.4757   43.0862  -22.3085 C   0  0  0  0  0  0  0  0  0  0  0  0
  -19.1959   42.5344  -21.1009 N   0  0  0  0  0  0  0  0  0  0  0  0
  -19.1290   41.1977  -20.9617 C   0  0  0  0  0  0  0  0  0  0  0  0
  -18.8483   40.5666  -19.7599 O   0  0  0  0  0  0  0  0  0  0  0  0
  -18.4899   41.3968  -18.6537 C   0  0  0  0  0  0  0  0  0  0  0  0
  -18.5685   40.6457  -17.3541 C   0  0  0  0  0  0  0  0  0  0  0  0
  -17.3107   40.5467  -16.7703 O   0  0  0  0  0  0  0  0  0  0  0  0
  -16.4471   41.5860  -16.4803 C   0  0  0  0  0  0  0  0  0  0  0  0
  -15.3236   41.3733  -15.7829 N   0  0  0  0  0  0  0  0  0  0  0  0
  -14.4567   42.3682  -15.4816 C   0  0  0  0  0  0  0  0  0  0  0  0
  -14.7356   43.6326  -15.9022 C   0  0  0  0  0  0  0  0  0  0  0  0
  -13.5366   45.0527  -15.4946 Br  0  0  0  0  0  0  0  0  0  0  0  0
  -15.8925   43.8720  -16.6244 C   0  0  0  0  0  0  0  0  0  0  0  0
  -16.7182   42.8304  -16.8922 N   0  0  0  0  0  0  0  0  0  0  0  0
  -19.3511   40.4099  -22.0721 C   0  0  0  0  0  0  0  0  0  0  0  0
  -19.2825   38.9723  -21.9372 C   0  0  0  0  0  0  0  0  0  0  0  0
  -20.4183   38.2890  -21.5490 C   0  0  0  0  0  0  0  0  0  0  0  0
  -20.4718   36.9267  -21.3882 C   0  0  0  0  0  0  0  0  0  0  0  0
  -19.3024   36.2150  -21.6362 C   0  0  0  0  0  0  0  0  0  0  0  0
  -19.3593   34.3375  -21.4192 Br  0  0  0  0  0  0  0  0  0  0  0  0
  -18.1627   36.8644  -22.0218 C   0  0  0  0  0  0  0  0  0  0  0  0
  -18.1433   38.2348  -22.1740 C   0  0  0  0  0  0  0  0  0  0  0  0
  1  2  1  0
  2  3  1  0
  3  4  1  0
  4  5  1  0
  5  6  2  0
  5  7  2  0
  5  8  1  0
  8  9  1  0
  9 10  2  0
 10 11  1  0
 11 12  2  0
 12 13  1  0
 13 14  1  0
 14 15  1  0
 15 16  1  0
 16 17  1  0
 17 18  1  0
 18 19  2  0
 19 20  1  0
 20 21  2  0
 21 22  1  0
 21 23  1  0
 23 24  2  0
 13 25  2  0
 25 26  1  0
 26 27  2  0
 27 28  1  0
 28 29  2  0
 29 30  1  0
 29 31  1  0
 31 32  2  0
 25  9  1  0
 32 26  1  0
 24 18  1  0
M  END
$$$$
