
     RDKit          3D

 25 28  0  0  0  0  0  0  0  0999 V2000
  -16.1286   19.9818  -40.2212 C   0  0  0  0  0  0  0  0  0  0  0  0
  -15.8481   19.0193  -39.1251 C   0  0  0  0  0  0  0  0  0  0  0  0
  -15.8079   17.6001  -39.4870 C   0  0  0  0  0  0  0  0  0  0  0  0
  -14.7519   16.9497  -40.0794 C   0  0  0  0  0  0  0  0  0  0  0  0
  -13.5372   17.6256  -40.4331 C   0  0  0  0  0  0  0  0  0  0  0  0
  -12.5248   17.7721  -39.4734 C   0  0  0  0  0  0  0  0  0  0  0  0
  -11.3220   18.3840  -39.7641 C   0  0  0  0  0  0  0  0  0  0  0  0
  -11.0870   18.8732  -41.0293 C   0  0  0  0  0  0  0  0  0  0  0  0
  -10.0691   19.4993  -41.6240 N   0  0  0  0  0  0  0  0  0  0  0  0
  -10.3462   19.7645  -42.8824 N   0  0  0  0  0  0  0  0  0  0  0  0
  -11.5864   19.3036  -43.1436 C   0  0  0  0  0  0  0  0  0  0  0  0
  -12.0781   18.7293  -41.9701 C   0  0  0  0  0  0  0  0  0  0  0  0
  -13.2880   18.1151  -41.6835 C   0  0  0  0  0  0  0  0  0  0  0  0
  -14.8382   15.5859  -40.3673 C   0  0  0  0  0  0  0  0  0  0  0  0
  -15.9309   14.8825  -40.0812 N   0  0  0  0  0  0  0  0  0  0  0  0
  -16.9890   15.4920  -39.4978 C   0  0  0  0  0  0  0  0  0  0  0  0
  -18.1464   14.7516  -39.1946 N   0  0  0  0  0  0  0  0  0  0  0  0
  -16.9150   16.8242  -39.2122 C   0  0  0  0  0  0  0  0  0  0  0  0
  -18.0626   17.4690  -38.5823 C   0  0  0  0  0  0  0  0  0  0  0  0
  -18.1632   17.4918  -37.2088 C   0  0  0  0  0  0  0  0  0  0  0  0
  -19.2389   18.0932  -36.5974 C   0  0  0  0  0  0  0  0  0  0  0  0
  -20.2354   18.6836  -37.3404 C   0  0  0  0  0  0  0  0  0  0  0  0
  -21.3418   19.3031  -36.7497 O   0  0  0  0  0  0  0  0  0  0  0  0
  -20.1517   18.6707  -38.7317 C   0  0  0  0  0  0  0  0  0  0  0  0
  -19.0674   18.0636  -39.3132 C   0  0  0  0  0  0  0  0  0  0  0  0
  1  2  1  0
  2  3  1  0
  3  4  2  0
  4  5  1  0
  5  6  2  0
  6  7  1  0
  7  8  2  0
  8  9  1  0
  9 10  1  0
 10 11  2  0
 11 12  1  0
 12 13  2  0
  4 14  1  0
 14 15  2  0
 15 16  1  0
 16 17  1  0
 16 18  2  0
 18 19  1  0
 19 20  2  0
 20 21  1  0
 21 22  2  0
 22 23  1  0
 22 24  1  0
 24 25  2  0
 18  3  1  0
 25 19  1  0
 13  5  1  0
 12  8  1  0
M  END
$$$$
