
     RDKit          3D

 33 37  0  0  0  0  0  0  0  0999 V2000
  -24.8120   45.1769  -19.6068 C   0  0  0  0  0  0  0  0  0  0  0  0
  -23.5710   44.5277  -19.1600 N   0  0  0  0  0  0  0  0  0  0  0  0
  -22.3575   44.6546  -19.7174 C   0  0  0  0  0  0  0  0  0  0  0  0
  -21.4527   43.8772  -18.9932 C   0  0  0  0  0  0  0  0  0  0  0  0
  -20.0125   43.7569  -19.2456 C   0  0  0  0  0  0  0  0  0  0  0  0
  -19.1060   43.9249  -18.2302 C   0  0  0  0  0  0  0  0  0  0  0  0
  -17.7477   43.7893  -18.4671 C   0  0  0  0  0  0  0  0  0  0  0  0
  -17.2795   43.4826  -19.7282 C   0  0  0  0  0  0  0  0  0  0  0  0
  -18.2131   43.3209  -20.7205 C   0  0  0  0  0  0  0  0  0  0  0  0
  -19.5493   43.4506  -20.5026 C   0  0  0  0  0  0  0  0  0  0  0  0
  -17.4779   43.0015  -21.9781 C   0  0  0  0  0  0  0  0  0  0  0  0
  -16.1866   42.4217  -21.4480 C   0  0  0  0  0  0  0  0  0  0  0  0
  -15.9636   43.2845  -20.2720 N   0  0  0  0  0  0  0  0  0  0  0  0
  -14.7549   43.7830  -19.8033 C   0  0  0  0  0  0  0  0  0  0  0  0
  -14.6660   44.0016  -18.5460 O   0  0  0  0  0  0  0  0  0  0  0  0
  -13.5781   44.0770  -20.6261 C   0  0  0  0  0  0  0  0  0  0  0  0
  -12.3331   43.9394  -19.7985 C   0  0  0  0  0  0  0  0  0  0  0  0
  -11.8358   45.0555  -19.1508 C   0  0  0  0  0  0  0  0  0  0  0  0
  -10.6919   44.9351  -18.3915 C   0  0  0  0  0  0  0  0  0  0  0  0
  -10.0468   43.7240  -18.2741 C   0  0  0  0  0  0  0  0  0  0  0  0
  -10.5612   42.6388  -18.9254 C   0  0  0  0  0  0  0  0  0  0  0  0
   -9.8926   41.3042  -18.8254 C   0  0  0  0  0  0  0  0  0  0  0  0
  -10.8207   40.2878  -19.0377 F   0  0  0  0  0  0  0  0  0  0  0  0
   -8.9341   41.2210  -19.7972 F   0  0  0  0  0  0  0  0  0  0  0  0
   -9.3672   41.2128  -17.5481 F   0  0  0  0  0  0  0  0  0  0  0  0
  -11.7025   42.7315  -19.6904 C   0  0  0  0  0  0  0  0  0  0  0  0
  -22.1812   43.2922  -17.9958 C   0  0  0  0  0  0  0  0  0  0  0  0
  -21.8691   42.4223  -16.9756 C   0  0  0  0  0  0  0  0  0  0  0  0
  -20.5173   41.9755  -16.8647 N   0  0  0  0  0  0  0  0  0  0  0  0
  -22.8256   42.0047  -16.1317 N   0  0  0  0  0  0  0  0  0  0  0  0
  -24.1017   42.4017  -16.2353 C   0  0  0  0  0  0  0  0  0  0  0  0
  -24.4285   43.2499  -17.2250 N   0  0  0  0  0  0  0  0  0  0  0  0
  -23.5199   43.7039  -18.1008 C   0  0  0  0  0  0  0  0  0  0  0  0
  1  2  1  0
  2  3  1  0
  3  4  2  0
  4  5  1  0
  5  6  2  0
  6  7  1  0
  7  8  2  0
  8  9  1  0
  9 10  2  0
  9 11  1  0
 11 12  1  0
 12 13  1  0
 13 14  1  0
 14 15  2  0
 14 16  1  0
 16 17  1  0
 17 18  2  0
 18 19  1  0
 19 20  2  0
 20 21  1  0
 21 22  1  0
 22 23  1  0
 22 24  1  0
 22 25  1  0
 21 26  2  0
  4 27  1  0
 27 28  2  0
 28 29  1  0
 28 30  1  0
 30 31  2  0
 31 32  1  0
 32 33  2  0
 33  2  1  0
 10  5  1  0
 26 17  1  0
 33 27  1  0
 13  8  1  0
M  END
$$$$
