
     RDKit          3D

 29 31  0  0  0  0  0  0  0  0999 V2000
  -14.4094   18.5017  -10.5279 C   0  0  0  0  0  0  0  0  0  0  0  0
  -13.1604   19.2202  -10.1218 C   0  0  0  0  0  0  0  0  0  0  0  0
  -12.2964   18.6317   -9.2408 C   0  0  0  0  0  0  0  0  0  0  0  0
  -11.1813   19.3183   -8.9046 C   0  0  0  0  0  0  0  0  0  0  0  0
  -10.2481   18.8012   -8.0186 O   0  0  0  0  0  0  0  0  0  0  0  0
  -10.8906   20.6006   -9.4281 C   0  0  0  0  0  0  0  0  0  0  0  0
   -9.6566   21.1919   -8.9577 C   0  0  0  0  0  0  0  0  0  0  0  0
   -9.5905   21.9738   -7.8095 C   0  0  0  0  0  0  0  0  0  0  0  0
   -8.4062   22.4667   -7.3217 C   0  0  0  0  0  0  0  0  0  0  0  0
   -7.2347   22.1799   -7.9898 C   0  0  0  0  0  0  0  0  0  0  0  0
   -5.9566   22.7071   -7.4722 C   0  0  1  0  0  0  0  0  0  0  0  0
   -5.9434   24.2283   -7.5008 C   0  0  0  0  0  0  0  0  0  0  0  0
   -5.6389   22.2403   -6.0844 C   0  0  0  0  0  0  0  0  0  0  0  0
   -4.3778   22.8106   -5.6801 N   0  0  0  0  0  0  0  0  0  0  0  0
   -3.2449   22.3114   -6.3933 C   0  0  0  0  0  0  0  0  0  0  0  0
   -4.2076   22.9003   -4.2583 C   0  0  0  0  0  0  0  0  0  0  0  0
   -7.2614   21.4080   -9.1311 C   0  0  0  0  0  0  0  0  0  0  0  0
   -8.4717   20.9180   -9.6092 C   0  0  0  0  0  0  0  0  0  0  0  0
  -11.7810   21.1629  -10.3121 C   0  0  0  0  0  0  0  0  0  0  0  0
  -12.9390   20.4855  -10.6806 C   0  0  0  0  0  0  0  0  0  0  0  0
  -13.8738   20.9349  -11.5327 N   0  0  0  0  0  0  0  0  0  0  0  0
  -13.6855   22.1279  -12.0760 C   0  0  0  0  0  0  0  0  0  0  0  0
  -14.5123   22.6196  -12.8819 O   0  0  0  0  0  0  0  0  0  0  0  0
  -12.5394   22.8700  -11.7519 C   0  0  0  0  0  0  0  0  0  0  0  0
  -12.0714   24.4375  -12.3291 S   0  0  0  0  0  0  0  0  0  0  0  0
  -10.5384   24.5152  -11.3883 C   0  0  0  0  0  0  0  0  0  0  0  0
  -10.5373   23.2672  -10.6885 C   0  0  0  0  0  0  0  0  0  0  0  0
  -11.5553   22.4470  -10.8827 C   0  0  0  0  0  0  0  0  0  0  0  0
   -8.3661   21.8617   -8.3041 Cl  0  0  0  0  0  0  0  0  0  0  0  0
  1  2  1  0
  2  3  2  0
  3  4  1  0
  4  5  1  0
  4  6  2  0
  6  7  1  0
  7  8  2  0
  8  9  1  0
  9 10  2  0
 10 11  1  0
 11 12  1  1
 11 13  1  0
 13 14  1  0
 14 15  1  0
 14 16  1  0
 10 17  1  0
 17 18  2  0
  6 19  1  0
 19 20  2  0
 20 21  1  0
 21 22  1  0
 22 23  2  0
 22 24  1  0
 24 25  1  0
 25 26  1  0
 26 27  2  0
 27 28  1  0
 20  2  1  0
 28 24  2  0
 18  7  1  0
 28 19  1  0
M  END
$$$$
