
     RDKit          3D

 25 26  0  0  0  0  0  0  0  0999 V2000
  -13.0130   17.9631  -42.5317 C   0  0  0  0  0  0  0  0  0  0  0  0
  -13.8870   17.9983  -41.3266 C   0  0  0  0  0  0  0  0  0  0  0  0
  -14.0755   19.1683  -40.6254 C   0  0  0  0  0  0  0  0  0  0  0  0
  -14.8826   19.1847  -39.5188 C   0  0  0  0  0  0  0  0  0  0  0  0
  -15.5146   18.0500  -39.0877 C   0  0  0  0  0  0  0  0  0  0  0  0
  -16.3851   17.9814  -37.9268 C   0  0  0  0  0  0  0  0  0  0  0  0
  -17.3313   17.1676  -37.9049 O   0  0  0  0  0  0  0  0  0  0  0  0
  -16.2308   18.8040  -36.7727 N   0  0  0  0  0  0  0  0  0  0  0  0
  -17.0592   18.7189  -35.6035 C   0  0  0  0  0  0  0  0  0  0  0  0
  -16.6907   17.5689  -34.6896 C   0  0  0  0  0  0  0  0  0  0  0  0
  -16.4389   18.1030  -33.3063 C   0  0  0  0  0  0  0  0  0  0  0  0
  -16.1195   17.0474  -32.3119 C   0  0  0  0  0  0  0  0  0  0  0  0
  -16.0903   17.4439  -30.8886 C   0  0  0  0  0  0  0  0  0  0  0  0
  -17.4322   17.5180  -30.2330 C   0  0  0  0  0  0  0  0  0  0  0  0
  -17.8449   18.6171  -29.8131 O   0  0  0  0  0  0  0  0  0  0  0  0
  -18.2236   16.3575  -30.0906 N   0  0  0  0  0  0  0  0  0  0  0  0
  -19.6098   16.2340  -30.2987 C   0  0  0  0  0  0  0  0  0  0  0  0
  -20.4787   17.2828  -30.4676 C   0  0  0  0  0  0  0  0  0  0  0  0
  -21.8412   17.1366  -30.6713 C   0  0  0  0  0  0  0  0  0  0  0  0
  -22.3511   15.8604  -30.7059 C   0  0  0  0  0  0  0  0  0  0  0  0
  -21.4961   14.7965  -30.5386 C   0  0  0  0  0  0  0  0  0  0  0  0
  -20.1460   14.9363  -30.3366 C   0  0  0  0  0  0  0  0  0  0  0  0
  -19.2932   13.7908  -30.1669 N   0  0  0  0  0  0  0  0  0  0  0  0
  -15.3060   16.8948  -39.8107 C   0  0  0  0  0  0  0  0  0  0  0  0
  -14.5028   16.8321  -40.9296 C   0  0  0  0  0  0  0  0  0  0  0  0
  1  2  1  0
  2  3  2  0
  3  4  1  0
  4  5  2  0
  5  6  1  0
  6  7  2  0
  6  8  1  0
  8  9  1  0
  9 10  1  0
 10 11  1  0
 11 12  1  0
 12 13  1  0
 13 14  1  0
 14 15  2  0
 14 16  1  0
 16 17  1  0
 17 18  2  0
 18 19  1  0
 19 20  2  0
 20 21  1  0
 21 22  2  0
 22 23  1  0
  5 24  1  0
 24 25  2  0
 25  2  1  0
 22 17  1  0
M  END
$$$$
