
     RDKit          3D

 28 30  0  0  0  0  0  0  0  0999 V2000
  -18.3553   42.2966  -21.0221 Br  0  0  0  0  0  0  0  0  0  0  0  0
  -18.5917   48.4376  -22.7211 C   0  0  0  0  0  0  0  0  0  0  0  0
  -18.8786   47.5988  -21.5818 N   0  0  0  0  0  0  0  0  0  0  0  0
  -20.0327   48.1725  -20.9090 C   0  0  0  0  0  0  0  0  0  0  0  0
  -20.9007   47.0439  -20.4319 C   0  0  0  0  0  0  0  0  0  0  0  0
  -20.0031   45.8245  -20.7103 C   0  0  0  0  0  0  0  0  0  0  0  0
  -19.3207   46.2733  -21.9807 C   0  0  2  0  0  0  0  0  0  0  0  0
  -18.2003   45.4042  -22.4380 C   0  0  0  0  0  0  0  0  0  0  0  0
  -17.1455   45.1375  -21.4562 C   0  0  0  0  0  0  0  0  0  0  0  0
  -15.9386   45.8225  -21.3595 C   0  0  0  0  0  0  0  0  0  0  0  0
  -15.2885   45.2924  -20.3188 N   0  0  0  0  0  0  0  0  0  0  0  0
  -16.0021   44.3202  -19.7534 C   0  0  0  0  0  0  0  0  0  0  0  0
  -15.7851   43.4698  -18.6774 C   0  0  0  0  0  0  0  0  0  0  0  0
  -16.6968   42.5257  -18.2957 C   0  0  0  0  0  0  0  0  0  0  0  0
  -17.8862   42.3777  -18.9741 C   0  0  0  0  0  0  0  0  0  0  0  0
  -18.9211   41.3975  -18.6312 C   0  0  0  0  0  0  0  0  0  0  0  0
  -18.7769   40.0576  -19.2595 C   0  0  0  0  0  0  0  0  0  0  0  0
  -18.7852   40.0722  -21.0319 S   0  0  0  0  0  6  0  0  0  0  0  0
  -17.6972   40.9470  -21.5934 O   0  0  0  0  0  0  0  0  0  0  0  0
  -20.1280   40.5665  -21.5386 O   0  0  0  0  0  0  0  0  0  0  0  0
  -18.6110   38.4267  -21.5640 C   0  0  0  0  0  0  0  0  0  0  0  0
  -17.3691   37.8729  -21.7256 C   0  0  0  0  0  0  0  0  0  0  0  0
  -17.2204   36.5472  -22.1590 C   0  0  0  0  0  0  0  0  0  0  0  0
  -18.3310   35.7927  -22.4253 C   0  0  0  0  0  0  0  0  0  0  0  0
  -19.5852   36.3408  -22.2658 C   0  0  0  0  0  0  0  0  0  0  0  0
  -19.7199   37.6588  -21.8349 C   0  0  0  0  0  0  0  0  0  0  0  0
  -18.1092   43.2230  -20.0477 C   0  0  0  0  0  0  0  0  0  0  0  0
  -17.1832   44.1948  -20.4480 C   0  0  0  0  0  0  0  0  0  0  0  0
  2  3  1  0
  3  4  1  0
  4  5  1  0
  5  6  1  0
  6  7  1  0
  7  8  1  1
  8  9  1  0
  9 10  2  0
 10 11  1  0
 11 12  1  0
 12 13  2  0
 13 14  1  0
 14 15  2  0
 15 16  1  0
 16 17  1  0
 17 18  1  0
 18 19  2  0
 18 20  2  0
 18 21  1  0
 21 22  2  0
 22 23  1  0
 23 24  2  0
 24 25  1  0
 25 26  2  0
 15 27  1  0
 27 28  2  0
  7  3  1  0
 28  9  1  0
 28 12  1  0
 26 21  1  0
M  END
$$$$
