
     RDKit          3D

 24 27  0  0  0  0  0  0  0  0999 V2000
  -17.4322   20.8748  -42.5097 N   0  0  0  0  0  0  0  0  0  0  0  0
  -18.3937   20.5440  -41.5367 C   0  0  0  0  0  0  0  0  0  0  0  0
  -19.5490   21.0180  -41.6532 O   0  0  0  0  0  0  0  0  0  0  0  0
  -18.0205   19.6674  -40.4317 C   0  0  0  0  0  0  0  0  0  0  0  0
  -18.9188   19.3765  -39.4311 C   0  0  0  0  0  0  0  0  0  0  0  0
  -18.5594   18.5420  -38.3817 C   0  0  0  0  0  0  0  0  0  0  0  0
  -17.3059   17.9837  -38.3081 C   0  0  0  0  0  0  0  0  0  0  0  0
  -16.3966   18.2724  -39.3124 C   0  0  0  0  0  0  0  0  0  0  0  0
  -15.1289   17.8942  -39.5221 N   0  0  0  0  0  0  0  0  0  0  0  0
  -14.6834   18.4585  -40.6588 C   0  0  0  0  0  0  0  0  0  0  0  0
  -13.3310   18.2606  -41.1961 C   0  0  0  0  0  0  0  0  0  0  0  0
  -12.8205   19.0854  -42.1744 C   0  0  0  0  0  0  0  0  0  0  0  0
  -11.5442   18.9080  -42.6894 C   0  0  0  0  0  0  0  0  0  0  0  0
  -10.7340   17.8901  -42.2360 C   0  0  0  0  0  0  0  0  0  0  0  0
   -9.3618   17.6681  -42.7628 C   0  0  2  0  0  0  0  0  0  0  0  0
   -8.3781   18.6960  -42.2478 C   0  0  0  0  0  0  0  0  0  0  0  0
   -7.1965   18.4377  -43.1925 C   0  0  0  0  0  0  0  0  0  0  0  0
   -7.8349   17.7994  -44.4114 C   0  0  0  0  0  0  0  0  0  0  0  0
   -9.2754   17.8612  -44.1903 N   0  0  0  0  0  0  0  0  0  0  0  0
  -11.2429   17.0637  -41.2571 C   0  0  0  0  0  0  0  0  0  0  0  0
  -12.5160   17.2445  -40.7466 C   0  0  0  0  0  0  0  0  0  0  0  0
  -13.0300   16.4367  -39.7811 F   0  0  0  0  0  0  0  0  0  0  0  0
  -15.6810   19.1896  -41.1546 N   0  0  0  0  0  0  0  0  0  0  0  0
  -16.7646   19.1020  -40.3489 C   0  0  0  0  0  0  0  0  0  0  0  0
  1  2  1  0
  2  3  2  0
  2  4  1  0
  4  5  2  0
  5  6  1  0
  6  7  2  0
  7  8  1  0
  8  9  1  0
  9 10  1  0
 10 11  1  0
 11 12  2  0
 12 13  1  0
 13 14  2  0
 15 14  1  1
 15 16  1  0
 16 17  1  0
 17 18  1  0
 18 19  1  0
 14 20  1  0
 20 21  2  0
 21 22  1  0
 10 23  2  0
 23 24  1  0
 24  4  1  0
 24  8  2  0
 21 11  1  0
 19 15  1  0
M  END
$$$$
