
     RDKit          3D

 22 22  0  0  0  0  0  0  0  0999 V2000
  -23.5543   21.1265  -30.1476 C   0  0  0  0  0  0  0  0  0  0  0  0
  -23.5016   20.5191  -31.5524 C   0  0  0  0  0  0  0  0  0  0  0  0
  -24.5578   21.1296  -32.4363 C   0  0  0  0  0  0  0  0  0  0  0  0
  -23.7553   19.0633  -31.3949 C   0  0  0  0  0  0  0  0  0  0  0  0
  -22.7438   18.2377  -32.1724 C   0  0  2  0  0  0  0  0  0  0  0  0
  -21.6233   18.0663  -31.2451 N   0  0  0  0  0  0  0  0  0  0  0  0
  -21.2291   16.7875  -30.8328 C   0  0  0  0  0  0  0  0  0  0  0  0
  -22.0875   15.8517  -31.0093 O   0  0  0  0  0  0  0  0  0  0  0  0
  -19.9104   16.4877  -30.2178 C   0  0  1  0  0  0  0  0  0  0  0  0
  -19.7348   15.0771  -30.1639 O   0  0  0  0  0  0  0  0  0  0  0  0
  -18.8189   17.0090  -31.1102 C   0  0  2  0  0  0  0  0  0  0  0  0
  -18.8870   16.3206  -32.3797 N   0  0  0  0  0  0  0  0  0  0  0  0
  -17.4916   16.8948  -30.4272 C   0  0  0  0  0  0  0  0  0  0  0  0
  -16.4551   17.0969  -31.4697 C   0  0  0  0  0  0  0  0  0  0  0  0
  -15.9345   16.0133  -32.1123 C   0  0  0  0  0  0  0  0  0  0  0  0
  -14.9718   16.2309  -33.0805 C   0  0  0  0  0  0  0  0  0  0  0  0
  -14.5289   17.4922  -33.4109 C   0  0  0  0  0  0  0  0  0  0  0  0
  -15.0705   18.5571  -32.7485 C   0  0  0  0  0  0  0  0  0  0  0  0
  -16.0407   18.3562  -31.7710 C   0  0  0  0  0  0  0  0  0  0  0  0
  -22.3290   18.8368  -33.4358 C   0  0  0  0  0  0  0  0  0  0  0  0
  -22.0044   18.1868  -34.4530 O   0  0  0  0  0  0  0  0  0  0  0  0
  -22.2672   20.2359  -33.5937 O   0  0  0  0  0  0  0  0  0  0  0  0
  1  2  1  0
  2  3  1  0
  2  4  1  0
  5  4  1  1
  5  6  1  0
  6  7  1  0
  7  8  2  0
  7  9  1  0
  9 10  1  6
  9 11  1  0
 11 12  1  6
 11 13  1  0
 13 14  1  0
 14 15  2  0
 15 16  1  0
 16 17  2  0
 17 18  1  0
 18 19  2  0
  5 20  1  0
 20 21  2  0
 20 22  1  0
 19 14  1  0
M  END
$$$$
