
     RDKit          3D

 21 22  0  0  0  0  0  0  0  0999 V2000
  -16.7148   47.3535  -21.8890 C   0  0  0  0  0  0  0  0  0  0  0  0
  -16.5152   46.2810  -21.0222 O   0  0  0  0  0  0  0  0  0  0  0  0
  -16.7801   44.9582  -21.2967 C   0  0  0  0  0  0  0  0  0  0  0  0
  -17.6004   44.5404  -22.3324 C   0  0  0  0  0  0  0  0  0  0  0  0
  -17.8235   43.2016  -22.5526 C   0  0  0  0  0  0  0  0  0  0  0  0
  -18.6930   42.8000  -23.6512 C   0  0  0  0  0  0  0  0  0  0  0  0
  -18.3751   43.5540  -24.9338 C   0  0  0  0  0  0  0  0  0  0  0  0
  -20.1533   42.9429  -23.3835 C   0  0  0  0  0  0  0  0  0  0  0  0
  -17.2349   42.2395  -21.7460 C   0  0  0  0  0  0  0  0  0  0  0  0
  -17.5164   40.9278  -22.0462 O   0  0  0  0  0  0  0  0  0  0  0  0
  -18.3236   40.1735  -21.2217 C   0  0  0  0  0  0  0  0  0  0  0  0
  -18.7872   40.6656  -20.0116 C   0  0  0  0  0  0  0  0  0  0  0  0
  -19.5745   39.9392  -19.2030 N   0  0  0  0  0  0  0  0  0  0  0  0
  -19.9582   38.6879  -19.5252 C   0  0  0  0  0  0  0  0  0  0  0  0
  -20.7921   37.9466  -18.6455 N   0  0  0  0  0  0  0  0  0  0  0  0
  -19.5200   38.1914  -20.6949 N   0  0  0  0  0  0  0  0  0  0  0  0
  -18.7262   38.8733  -21.5512 C   0  0  0  0  0  0  0  0  0  0  0  0
  -18.3030   38.3098  -22.7877 N   0  0  0  0  0  0  0  0  0  0  0  0
  -16.4168   42.6499  -20.7119 C   0  0  0  0  0  0  0  0  0  0  0  0
  -16.1880   44.0107  -20.4859 C   0  0  0  0  0  0  0  0  0  0  0  0
  -14.9262   44.5353  -18.8866 I   0  0  0  0  0  0  0  0  0  0  0  0
  1  2  1  0
  2  3  1  0
  3  4  2  0
  4  5  1  0
  5  6  1  0
  6  7  1  0
  6  8  1  0
  5  9  2  0
  9 10  1  0
 10 11  1  0
 11 12  2  0
 12 13  1  0
 13 14  2  0
 14 15  1  0
 14 16  1  0
 16 17  2  0
 17 18  1  0
  9 19  1  0
 19 20  2  0
 20 21  1  0
 20  3  1  0
 17 11  1  0
M  END
$$$$
