
     RDKit          3D

 32 31  0  0  0  0  0  0  0  0999 V2000
  -19.4026   34.4702  -20.7601 C   0  0  0  0  0  0  0  0  0  0  0  0
  -20.7031   34.0943  -21.3467 C   0  0  0  0  0  0  0  0  0  0  0  0
  -21.3413   34.9863  -22.3299 C   0  0  0  0  0  0  0  0  0  0  0  0
  -20.7052   35.2965  -23.6030 C   0  0  0  0  0  0  0  0  0  0  0  0
  -19.2082   36.1505  -23.7141 S   0  0  0  0  0  6  0  0  0  0  0  0
  -18.9288   36.3178  -25.2286 O   0  0  0  0  0  0  0  0  0  0  0  0
  -17.9962   35.3900  -23.2338 O   0  0  0  0  0  0  0  0  0  0  0  0
  -19.1531   37.7141  -23.0760 N   0  0  0  0  0  0  0  0  0  0  0  0
  -18.2750   37.9565  -21.9909 C   0  0  1  0  0  0  0  0  0  0  0  0
  -17.2114   38.9920  -22.3623 C   0  0  0  0  0  0  0  0  0  0  0  0
  -17.8282   40.2980  -22.7458 C   0  0  0  0  0  0  0  0  0  0  0  0
  -18.0756   41.2929  -21.8230 C   0  0  0  0  0  0  0  0  0  0  0  0
  -18.6548   42.5146  -22.1860 C   0  0  0  0  0  0  0  0  0  0  0  0
  -18.9980   42.7593  -23.4929 C   0  0  0  0  0  0  0  0  0  0  0  0
  -19.5676   43.9684  -23.8327 O   0  0  0  0  0  0  0  0  0  0  0  0
  -19.7830   44.9277  -22.8168 C   0  0  0  0  0  0  0  0  0  0  0  0
  -20.4122   46.1683  -23.4088 C   0  0  0  0  0  0  0  0  0  0  0  0
  -20.6681   47.2480  -22.3868 C   0  0  0  0  0  0  0  0  0  0  0  0
  -21.5842   46.7997  -21.3152 C   0  0  0  0  0  0  0  0  0  0  0  0
  -21.8935   47.8307  -20.2620 C   0  0  0  0  0  0  0  0  0  0  0  0
  -20.6937   48.3224  -19.5231 C   0  0  0  0  0  0  0  0  0  0  0  0
  -20.0548   49.5260  -20.0795 C   0  0  0  0  0  0  0  0  0  0  0  0
  -20.7246   50.3110  -21.0088 N   0  0  0  0  0  0  0  0  0  0  0  0
  -22.0902   50.1451  -21.2475 C   0  0  0  0  0  0  0  0  0  0  0  0
  -22.7629   48.9377  -20.7055 C   0  0  0  0  0  0  0  0  0  0  0  0
  -18.7478   41.7589  -24.4142 C   0  0  0  0  0  0  0  0  0  0  0  0
  -18.1779   40.5552  -24.0609 C   0  0  0  0  0  0  0  0  0  0  0  0
  -18.9875   38.4172  -20.7711 C   0  0  0  0  0  0  0  0  0  0  0  0
  -18.3800   38.6707  -19.7195 O   0  0  0  0  0  0  0  0  0  0  0  0
  -20.3690   38.5594  -20.8366 O   0  0  0  0  0  0  0  0  0  0  0  0
  -19.9665   41.4654  -22.0280 Cl  0  0  0  0  0  0  0  0  0  0  0  0
  -19.9847   42.1993  -22.3284 O   0  0  0  0  0  0  0  0  0  0  0  0
  1  2  1  0
  2  3  1  0
  3  4  1  0
  4  5  1  0
  5  6  2  0
  5  7  2  0
  5  8  1  0
  8  9  1  0
  9 10  1  6
 10 11  1  0
 11 12  2  0
 12 13  1  0
 13 14  2  0
 14 15  1  0
 15 16  1  0
 16 17  1  0
 17 18  1  0
 18 19  1  0
 19 20  1  0
 20 21  1  0
 21 22  1  0
 22 23  1  0
 23 24  1  0
 24 25  1  0
 14 26  1  0
 26 27  2  0
  9 28  1  0
 28 29  2  0
 28 30  1  0
 27 11  1  0
 25 20  1  0
M  END
$$$$
