
     RDKit          3D

 40 42  0  0  0  0  0  0  0  0999 V2000
  -32.8161   14.0278  -17.5176 C   0  0  0  0  0  0  0  0  0  0  0  0
  -32.5243   13.1461  -18.7054 C   0  0  0  0  0  0  0  0  0  0  0  0
  -31.6035   12.0461  -18.2362 C   0  0  0  0  0  0  0  0  0  0  0  0
  -33.8280   12.4940  -19.1129 C   0  0  0  0  0  0  0  0  0  0  0  0
  -31.9197   13.9326  -19.8604 C   0  0  1  0  0  0  0  0  0  0  0  0
  -30.5192   14.2984  -19.6340 C   0  0  0  0  0  0  0  0  0  0  0  0
  -29.4687   13.6102  -20.4081 C   0  0  0  0  0  0  0  0  0  0  0  0
  -29.8716   13.0464  -21.7195 C   0  0  2  0  0  0  0  0  0  0  0  0
  -28.8895   13.2973  -22.7547 N   0  0  0  0  0  0  0  0  0  0  0  0
  -29.3384   13.3535  -24.1264 C   0  0  0  0  0  0  0  0  0  0  0  0
  -29.0803   12.1335  -24.9008 C   0  0  0  0  0  0  0  0  0  0  0  0
  -28.2552   12.1032  -25.9961 C   0  0  0  0  0  0  0  0  0  0  0  0
  -28.0545   10.9041  -26.6887 C   0  0  0  0  0  0  0  0  0  0  0  0
  -28.6546    9.7261  -26.3212 C   0  0  0  0  0  0  0  0  0  0  0  0
  -28.4377    8.4843  -27.0502 C   0  0  0  0  0  0  0  0  0  0  0  0
  -27.6924    8.5387  -28.0714 O   0  0  0  0  0  0  0  0  0  0  0  0
  -29.0085    7.2650  -26.6724 N   0  0  0  0  0  0  0  0  0  0  0  0
  -28.7891    6.0795  -27.4675 C   0  0  0  0  0  0  0  0  0  0  0  0
  -29.4439    4.8921  -26.8470 C   0  0  0  0  0  0  0  0  0  0  0  0
  -29.2230    3.6705  -27.6827 C   0  0  0  0  0  0  0  0  0  0  0  0
  -28.6015    3.7140  -28.7652 O   0  0  0  0  0  0  0  0  0  0  0  0
  -29.7330    2.4702  -27.2189 O   0  0  0  0  0  0  0  0  0  0  0  0
  -29.4846    9.7594  -25.2182 C   0  0  0  0  0  0  0  0  0  0  0  0
  -29.6824   10.9233  -24.5420 C   0  0  0  0  0  0  0  0  0  0  0  0
  -27.5234   13.5027  -22.4178 C   0  0  0  0  0  0  0  0  0  0  0  0
  -26.6475   13.6857  -23.3353 O   0  0  0  0  0  0  0  0  0  0  0  0
  -27.0221   13.5253  -21.0940 N   0  0  0  0  0  0  0  0  0  0  0  0
  -25.7388   14.0705  -20.8211 C   0  0  0  0  0  0  0  0  0  0  0  0
  -24.7207   13.7385  -21.6976 C   0  0  0  0  0  0  0  0  0  0  0  0
  -23.4293   14.2216  -21.5167 C   0  0  0  0  0  0  0  0  0  0  0  0
  -23.1670   15.0456  -20.4424 C   0  0  0  0  0  0  0  0  0  0  0  0
  -21.8862   15.5417  -20.2388 O   0  0  0  0  0  0  0  0  0  0  0  0
  -21.0406   14.7487  -19.3946 C   0  0  0  0  0  0  0  0  0  0  0  0
  -19.9811   15.5657  -19.0486 F   0  0  0  0  0  0  0  0  0  0  0  0
  -20.5952   13.6259  -20.0499 F   0  0  0  0  0  0  0  0  0  0  0  0
  -21.7577   14.3554  -18.2824 F   0  0  0  0  0  0  0  0  0  0  0  0
  -24.1905   15.3560  -19.5947 C   0  0  0  0  0  0  0  0  0  0  0  0
  -25.4808   14.8925  -19.7480 C   0  0  0  0  0  0  0  0  0  0  0  0
  -31.2081   13.6395  -22.1644 C   0  0  0  0  0  0  0  0  0  0  0  0
  -32.1898   13.1219  -21.1042 C   0  0  0  0  0  0  0  0  0  0  0  0
  1  2  1  0
  2  3  1  0
  2  4  1  0
  5  2  1  1
  5  6  1  0
  6  7  1  0
  7  8  1  0
  8  9  1  6
  9 10  1  0
 10 11  1  0
 11 12  2  0
 12 13  1  0
 13 14  2  0
 14 15  1  0
 15 16  2  0
 15 17  1  0
 17 18  1  0
 18 19  1  0
 19 20  1  0
 20 21  2  0
 20 22  1  0
 14 23  1  0
 23 24  2  0
  9 25  1  0
 25 26  2  0
 25 27  1  0
 27 28  1  0
 28 29  2  0
 29 30  1  0
 30 31  2  0
 31 32  1  0
 32 33  1  0
 33 34  1  0
 33 35  1  0
 33 36  1  0
 31 37  1  0
 37 38  2  0
  8 39  1  0
 39 40  1  0
 40  5  1  0
 24 11  1  0
 38 28  1  0
M  END
$$$$
