
     RDKit          3D

 24 26  0  0  0  0  0  0  0  0999 V2000
  -28.0400   26.3209  -34.3674 C   0  0  0  0  0  0  0  0  0  0  0  0
  -27.1336   27.2023  -34.9948 O   0  0  0  0  0  0  0  0  0  0  0  0
  -26.2458   26.7980  -35.9791 C   0  0  0  0  0  0  0  0  0  0  0  0
  -25.8761   25.4767  -36.0913 C   0  0  0  0  0  0  0  0  0  0  0  0
  -24.9890   25.1206  -37.0873 C   0  0  0  0  0  0  0  0  0  0  0  0
  -24.6013   23.7894  -37.2188 C   0  0  0  0  0  0  0  0  0  0  0  0
  -23.7201   23.4834  -38.2206 C   0  0  0  0  0  0  0  0  0  0  0  0
  -23.2655   22.0883  -38.4177 C   0  0  0  0  0  0  0  0  0  0  0  0
  -23.4238   21.5373  -39.5477 O   0  0  0  0  0  0  0  0  0  0  0  0
  -22.6544   21.3031  -37.4222 N   0  0  0  0  0  0  0  0  0  0  0  0
  -22.7567   19.8763  -37.3767 C   0  0  0  0  0  0  0  0  0  0  0  0
  -23.5430   19.2825  -36.4066 C   0  0  0  0  0  0  0  0  0  0  0  0
  -23.6613   17.8989  -36.3380 C   0  0  0  0  0  0  0  0  0  0  0  0
  -22.9707   17.1439  -37.2665 C   0  0  0  0  0  0  0  0  0  0  0  0
  -22.1866   17.7344  -38.2340 C   0  0  0  0  0  0  0  0  0  0  0  0
  -22.0795   19.1113  -38.2885 C   0  0  0  0  0  0  0  0  0  0  0  0
  -23.2333   24.4658  -39.0714 C   0  0  0  0  0  0  0  0  0  0  0  0
  -22.3208   24.0948  -40.0948 N   0  0  0  0  0  0  0  0  0  0  0  0
  -23.6366   25.7279  -38.9028 N   0  0  0  0  0  0  0  0  0  0  0  0
  -24.4914   26.0782  -37.9449 C   0  0  0  0  0  0  0  0  0  0  0  0
  -24.8563   27.4118  -37.8419 C   0  0  0  0  0  0  0  0  0  0  0  0
  -25.7422   27.7598  -36.8453 C   0  0  0  0  0  0  0  0  0  0  0  0
  -26.1402   29.0748  -36.6969 O   0  0  0  0  0  0  0  0  0  0  0  0
  -25.1964   30.0996  -36.6684 C   0  0  0  0  0  0  0  0  0  0  0  0
  1  2  1  0
  2  3  1  0
  3  4  2  0
  4  5  1  0
  5  6  2  0
  6  7  1  0
  7  8  1  0
  8  9  2  0
  8 10  1  0
 10 11  1  0
 11 12  2  0
 12 13  1  0
 13 14  2  0
 14 15  1  0
 15 16  2  0
  7 17  2  0
 17 18  1  0
 17 19  1  0
 19 20  2  0
 20 21  1  0
 21 22  2  0
 22 23  1  0
 23 24  1  0
 22  3  1  0
 20  5  1  0
 16 11  1  0
M  END
$$$$
