
     RDKit          3D

 27 30  0  0  0  0  0  0  0  0999 V2000
  -31.1460   23.1170  -37.3562 C   0  0  0  0  0  0  0  0  0  0  0  0
  -30.0679   24.0178  -36.9159 C   0  0  0  0  0  0  0  0  0  0  0  0
  -29.0219   23.5505  -36.1634 C   0  0  0  0  0  0  0  0  0  0  0  0
  -28.0301   24.3984  -35.7631 C   0  0  0  0  0  0  0  0  0  0  0  0
  -26.9072   23.8520  -34.9548 C   0  0  0  0  0  0  0  0  0  0  0  0
  -27.2936   24.0080  -33.5128 C   0  0  0  0  0  0  0  0  0  0  0  0
  -25.6221   24.3801  -35.3013 N   0  0  0  0  0  0  0  0  0  0  0  0
  -24.9111   23.8380  -36.3961 C   0  0  0  0  0  0  0  0  0  0  0  0
  -25.4422   22.8148  -37.1507 C   0  0  0  0  0  0  0  0  0  0  0  0
  -24.6944   22.3074  -38.2175 C   0  0  0  0  0  0  0  0  0  0  0  0
  -23.4633   22.8214  -38.4995 C   0  0  0  0  0  0  0  0  0  0  0  0
  -22.9361   23.8495  -37.7373 C   0  0  0  0  0  0  0  0  0  0  0  0
  -23.6538   24.3618  -36.6855 C   0  0  0  0  0  0  0  0  0  0  0  0
  -28.0704   25.7319  -36.1110 C   0  0  0  0  0  0  0  0  0  0  0  0
  -27.0602   26.5633  -35.6894 N   0  0  0  0  0  0  0  0  0  0  0  0
  -27.1135   27.8564  -36.0301 C   0  0  0  0  0  0  0  0  0  0  0  0
  -26.0791   28.7757  -35.6078 N   0  0  0  0  0  0  0  0  0  0  0  0
  -26.1978   30.1881  -35.8775 C   0  0  0  0  0  0  0  0  0  0  0  0
  -24.9017   30.9202  -35.9054 C   0  0  0  0  0  0  0  0  0  0  0  0
  -24.0334   30.5088  -34.9258 O   0  0  0  0  0  0  0  0  0  0  0  0
  -23.6988   29.1563  -35.0619 C   0  0  0  0  0  0  0  0  0  0  0  0
  -24.9204   28.2932  -34.9050 C   0  0  0  0  0  0  0  0  0  0  0  0
  -28.1632   28.3299  -36.7865 C   0  0  0  0  0  0  0  0  0  0  0  0
  -29.1821   27.5092  -37.2159 C   0  0  0  0  0  0  0  0  0  0  0  0
  -30.1620   27.8818  -37.9057 O   0  0  0  0  0  0  0  0  0  0  0  0
  -29.0891   26.1900  -36.8446 N   0  0  0  0  0  0  0  0  0  0  0  0
  -30.0740   25.3446  -37.2415 C   0  0  0  0  0  0  0  0  0  0  0  0
  1  2  1  0
  2  3  1  0
  3  4  2  0
  4  5  1  0
  5  6  1  0
  5  7  1  0
  7  8  1  0
  8  9  2  0
  9 10  1  0
 10 11  2  0
 11 12  1  0
 12 13  2  0
  4 14  1  0
 14 15  2  0
 15 16  1  0
 16 17  1  0
 17 18  1  0
 18 19  1  0
 19 20  1  0
 20 21  1  0
 21 22  1  0
 16 23  2  0
 23 24  1  0
 24 25  2  0
 24 26  1  0
 26 27  1  0
 27  2  2  0
 13  8  1  0
 26 14  1  0
 22 17  1  0
M  END
$$$$
