
     RDKit          3D

 40 44  0  0  0  0  0  0  0  0999 V2000
  -24.4662   13.9386  -21.1976 C   0  0  0  0  0  0  0  0  0  0  0  0
  -24.6940   13.9324  -22.7176 C   0  0  0  0  0  0  0  0  0  0  0  0
  -25.4198   15.1912  -23.0323 C   0  0  0  0  0  0  0  0  0  0  0  0
  -25.8114   15.3960  -24.4221 C   0  0  0  0  0  0  0  0  0  0  0  0
  -24.8865   15.8011  -25.3881 C   0  0  0  0  0  0  0  0  0  0  0  0
  -25.2304   15.9703  -26.7090 C   0  0  0  0  0  0  0  0  0  0  0  0
  -24.2272   16.4032  -27.7351 C   0  0  0  0  0  0  0  0  0  0  0  0
  -26.4792   15.7447  -27.0945 N   0  0  0  0  0  0  0  0  0  0  0  0
  -27.3881   15.3559  -26.1936 C   0  0  0  0  0  0  0  0  0  0  0  0
  -28.5849   15.1443  -26.5842 O   0  0  0  0  0  0  0  0  0  0  0  0
  -27.0942   15.1686  -24.8364 C   0  0  0  0  0  0  0  0  0  0  0  0
  -28.2078   14.7683  -23.9655 C   0  0  0  0  0  0  0  0  0  0  0  0
  -28.5603   13.3546  -24.1760 N   0  0  0  0  0  0  0  0  0  0  0  0
  -28.9177   12.5483  -23.0553 C   0  0  0  0  0  0  0  0  0  0  0  0
  -29.4800   13.1415  -22.1068 O   0  0  0  0  0  0  0  0  0  0  0  0
  -28.6447   11.1171  -23.0148 C   0  0  0  0  0  0  0  0  0  0  0  0
  -29.0021   10.2728  -24.0783 C   0  0  0  0  0  0  0  0  0  0  0  0
  -28.7157    8.9392  -24.0223 C   0  0  0  0  0  0  0  0  0  0  0  0
  -29.0573    8.0397  -25.1093 C   0  0  0  0  0  0  0  0  0  0  0  0
  -28.3158    6.8730  -25.3174 C   0  0  0  0  0  0  0  0  0  0  0  0
  -28.6616    6.0194  -26.3178 C   0  0  0  0  0  0  0  0  0  0  0  0
  -29.7335    6.2597  -27.1536 C   0  0  0  0  0  0  0  0  0  0  0  0
  -30.0824    5.3712  -28.2026 N   0  0  0  0  0  0  0  0  0  0  0  0
  -31.0483    5.8107  -29.1991 C   0  0  0  0  0  0  0  0  0  0  0  0
  -32.1248    4.7495  -29.3938 C   0  0  0  0  0  0  0  0  0  0  0  0
  -31.5479    3.4556  -29.6506 N   0  0  0  0  0  0  0  0  0  0  0  0
  -32.0223    2.4248  -28.7666 C   0  0  0  0  0  0  0  0  0  0  0  0
  -30.0969    3.4828  -29.6679 C   0  0  0  0  0  0  0  0  0  0  0  0
  -29.5341    4.0403  -28.3762 C   0  0  0  0  0  0  0  0  0  0  0  0
  -30.4347    7.4026  -26.9277 N   0  0  0  0  0  0  0  0  0  0  0  0
  -30.1194    8.2674  -25.9471 C   0  0  0  0  0  0  0  0  0  0  0  0
  -28.0801    8.3836  -22.9477 N   0  0  0  0  0  0  0  0  0  0  0  0
  -27.7269    9.1679  -21.9141 C   0  0  0  0  0  0  0  0  0  0  0  0
  -28.0044   10.5095  -21.9481 C   0  0  0  0  0  0  0  0  0  0  0  0
  -27.5416   11.0279  -20.7718 C   0  0  0  0  0  0  0  0  0  0  0  0
  -27.0107    9.9980  -20.0861 N   0  0  0  0  0  0  0  0  0  0  0  0
  -27.1032    8.8721  -20.7367 N   0  0  0  0  0  0  0  0  0  0  0  0
  -26.6640    7.5233  -20.3557 C   0  0  0  0  0  0  0  0  0  0  0  0
  -27.8672    6.6533  -20.0346 C   0  0  0  0  0  0  0  0  0  0  0  0
  -25.7380    7.5595  -19.1832 C   0  0  0  0  0  0  0  0  0  0  0  0
  1  2  1  0
  2  3  1  0
  3  4  1  0
  4  5  1  0
  5  6  2  0
  6  7  1  0
  6  8  1  0
  8  9  1  0
  9 10  2  0
  9 11  1  0
 11 12  1  0
 12 13  1  0
 13 14  1  0
 14 15  2  0
 14 16  1  0
 16 17  2  0
 17 18  1  0
 18 19  1  0
 19 20  2  0
 20 21  1  0
 21 22  2  0
 22 23  1  0
 23 24  1  0
 24 25  1  0
 25 26  1  0
 26 27  1  0
 26 28  1  0
 28 29  1  0
 22 30  1  0
 30 31  2  0
 18 32  2  0
 32 33  1  0
 33 34  2  0
 34 35  1  0
 35 36  2  0
 36 37  1  0
 37 38  1  0
 38 39  1  0
 38 40  1  0
 11  4  2  0
 34 16  1  0
 31 19  1  0
 37 33  1  0
 29 23  1  0
M  END
$$$$
