
     RDKit          3D

 18 20  0  0  0  0  0  0  0  0999 V2000
  -21.2224   14.5806  -31.4765 C   0  0  0  0  0  0  0  0  0  0  0  0
  -20.1445   15.3260  -30.9065 N   0  0  0  0  0  0  0  0  0  0  0  0
  -20.2531   16.7692  -30.8654 C   0  0  0  0  0  0  0  0  0  0  0  0
  -18.9781   14.7284  -30.3809 C   0  0  0  0  0  0  0  0  0  0  0  0
  -18.6283   13.4358  -30.6507 C   0  0  0  0  0  0  0  0  0  0  0  0
  -17.4908   12.8497  -30.1395 C   0  0  0  0  0  0  0  0  0  0  0  0
  -16.6632   13.5774  -29.3242 C   0  0  0  0  0  0  0  0  0  0  0  0
  -15.4298   12.9839  -28.7536 C   0  0  0  0  0  0  0  0  0  0  0  0
  -14.7973   12.0356  -28.7719 N   0  0  0  0  0  0  0  0  0  0  0  0
  -13.6782   11.7515  -28.1314 C   0  0  0  0  0  0  0  0  0  0  0  0
  -12.9201   10.5737  -28.1732 C   0  0  0  0  0  0  0  0  0  0  0  0
  -11.7844   10.4709  -27.4336 C   0  0  0  0  0  0  0  0  0  0  0  0
  -11.2928   11.4615  -26.6137 C   0  0  0  0  0  0  0  0  0  0  0  0
  -12.0306   12.6289  -26.5628 C   0  0  0  0  0  0  0  0  0  0  0  0
  -13.2093   12.7441  -27.3262 C   0  0  0  0  0  0  0  0  0  0  0  0
  -14.4003   14.0090  -27.5432 S   0  0  0  0  0  0  0  0  0  0  0  0
  -16.9827   14.8875  -29.0279 C   0  0  0  0  0  0  0  0  0  0  0  0
  -18.1141   15.4469  -29.5457 C   0  0  0  0  0  0  0  0  0  0  0  0
  1  2  1  0
  2  3  1  0
  2  4  1  0
  4  5  2  0
  5  6  1  0
  6  7  2  0
  7  8  1  0
  8  9  2  0
  9 10  1  0
 10 11  2  0
 11 12  1  0
 12 13  2  0
 13 14  1  0
 14 15  2  0
 15 16  1  0
  7 17  1  0
 17 18  2  0
 18  4  1  0
 16  8  1  0
 15 10  1  0
M  END
$$$$
