
     RDKit          3D

 32 34  0  0  0  0  0  0  0  0999 V2000
  -15.7881   19.5958  -33.5443 C   0  0  0  0  0  0  0  0  0  0  0  0
  -15.7321   18.2174  -34.1731 C   0  0  0  0  0  0  0  0  0  0  0  0
  -16.5359   17.2293  -33.4472 C   0  0  0  0  0  0  0  0  0  0  0  0
  -17.0212   17.5163  -32.1893 C   0  0  0  0  0  0  0  0  0  0  0  0
  -17.7800   16.6120  -31.4773 C   0  0  0  0  0  0  0  0  0  0  0  0
  -18.0936   15.3532  -32.0035 C   0  0  0  0  0  0  0  0  0  0  0  0
  -18.8824   14.4653  -31.2300 N   0  0  0  0  0  0  0  0  0  0  0  0
  -19.7147   13.4519  -31.8136 C   0  0  0  0  0  0  0  0  0  0  0  0
  -21.1891   13.7324  -31.7879 C   0  0  0  0  0  0  0  0  0  0  0  0
  -21.4098   14.9758  -32.6749 C   0  0  0  0  0  0  0  0  0  0  0  0
  -22.0166   12.6415  -32.4585 C   0  0  0  0  0  0  0  0  0  0  0  0
  -18.8297   14.6841  -29.4966 S   0  0  0  0  0  6  0  0  0  0  0  0
  -19.9295   13.8924  -28.8809 O   0  0  0  0  0  0  0  0  0  0  0  0
  -19.1390   16.1432  -29.2091 O   0  0  0  0  0  0  0  0  0  0  0  0
  -17.2733   14.2398  -28.8650 C   0  0  0  0  0  0  0  0  0  0  0  0
  -16.2019   15.0829  -28.9906 C   0  0  0  0  0  0  0  0  0  0  0  0
  -14.9478   14.7283  -28.4835 C   0  0  0  0  0  0  0  0  0  0  0  0
  -14.7801   13.5164  -27.8478 C   0  0  0  0  0  0  0  0  0  0  0  0
  -13.5346   13.1713  -27.3480 O   0  0  0  0  0  0  0  0  0  0  0  0
  -12.3312   13.7214  -27.8005 C   0  0  0  0  0  0  0  0  0  0  0  0
  -11.2520   13.3901  -26.8085 C   0  0  0  0  0  0  0  0  0  0  0  0
  -11.7470   12.5965  -25.6443 C   0  0  0  0  0  0  0  0  0  0  0  0
  -10.6609   11.9707  -24.8273 C   0  0  0  0  0  0  0  0  0  0  0  0
   -9.6995   11.3137  -25.5557 O   0  0  0  0  0  0  0  0  0  0  0  0
   -9.1057   12.1198  -26.5081 C   0  0  0  0  0  0  0  0  0  0  0  0
  -10.0978   12.6810  -27.4923 C   0  0  0  0  0  0  0  0  0  0  0  0
  -15.8560   12.6790  -27.7262 C   0  0  0  0  0  0  0  0  0  0  0  0
  -15.7101   11.3808  -27.0540 C   0  0  0  0  0  0  0  0  0  0  0  0
  -15.1607   10.4814  -27.9889 O   0  0  0  0  0  0  0  0  0  0  0  0
  -17.1168   13.0226  -28.2297 C   0  0  0  0  0  0  0  0  0  0  0  0
  -17.6026   15.0831  -33.2568 C   0  0  0  0  0  0  0  0  0  0  0  0
  -16.8405   15.9916  -33.9722 C   0  0  0  0  0  0  0  0  0  0  0  0
  1  2  1  0
  2  3  1  0
  3  4  2  0
  4  5  1  0
  5  6  2  0
  6  7  1  0
  7  8  1  0
  8  9  1  0
  9 10  1  0
  9 11  1  0
  7 12  1  0
 12 13  2  0
 12 14  2  0
 12 15  1  0
 15 16  2  0
 16 17  1  0
 17 18  2  0
 18 19  1  0
 19 20  1  0
 20 21  1  0
 21 22  1  0
 22 23  1  0
 23 24  1  0
 24 25  1  0
 25 26  1  0
 18 27  1  0
 27 28  1  0
 28 29  1  0
 27 30  2  0
  6 31  1  0
 31 32  2  0
 32  3  1  0
 30 15  1  0
 26 21  1  0
M  END
$$$$
