
     RDKit          3D

 28 30  0  0  0  0  0  0  0  0999 V2000
  -16.1211   14.4573  -29.3532 Cl  0  0  0  0  0  0  0  0  0  0  0  0
  -15.1759   19.2878  -31.2886 O   0  0  0  0  0  0  0  0  0  0  0  0
  -16.2678   18.7214  -31.2244 C   0  0  0  0  0  0  0  0  0  0  0  0
  -17.3697   19.0190  -30.2707 C   0  0  0  0  0  0  0  0  0  0  0  0
  -17.7955   17.8218  -29.4734 C   0  0  0  0  0  0  0  0  0  0  0  0
  -17.9278   16.5352  -30.2682 C   0  0  0  0  0  0  0  0  0  0  0  0
  -19.3333   16.1329  -30.2184 C   0  0  0  0  0  0  0  0  0  0  0  0
  -19.8129   15.0144  -29.6170 C   0  0  0  0  0  0  0  0  0  0  0  0
  -21.1664   14.6555  -29.5724 C   0  0  0  0  0  0  0  0  0  0  0  0
  -22.0780   15.4692  -30.1665 C   0  0  0  0  0  0  0  0  0  0  0  0
  -21.6507   16.6126  -30.7898 C   0  0  0  0  0  0  0  0  0  0  0  0
  -20.3179   16.9453  -30.8211 C   0  0  0  0  0  0  0  0  0  0  0  0
  -16.8799   15.5412  -29.9395 C   0  0  0  0  0  0  0  0  0  0  0  0
  -16.6313   15.1720  -28.5301 C   0  0  0  0  0  0  0  0  0  0  0  0
  -15.3077   14.3515  -28.5538 C   0  0  0  0  0  0  0  0  0  0  0  0
  -15.5322   13.1110  -29.2144 N   0  0  0  0  0  0  0  0  0  0  0  0
  -14.3474   12.4819  -29.6993 C   0  0  0  0  0  0  0  0  0  0  0  0
  -13.4440   12.2079  -28.5436 C   0  0  0  0  0  0  0  0  0  0  0  0
  -12.4892   13.0967  -28.0972 C   0  0  0  0  0  0  0  0  0  0  0  0
  -11.6679   12.8175  -27.0255 C   0  0  0  0  0  0  0  0  0  0  0  0
  -11.7864   11.6332  -26.3731 C   0  0  0  0  0  0  0  0  0  0  0  0
  -12.7266   10.7117  -26.7820 C   0  0  0  0  0  0  0  0  0  0  0  0
  -13.5363   11.0048  -27.8505 C   0  0  0  0  0  0  0  0  0  0  0  0
  -16.6722   13.0358  -30.0624 C   0  0  0  0  0  0  0  0  0  0  0  0
  -17.0280   14.2836  -30.7943 C   0  0  0  0  0  0  0  0  0  0  0  0
  -17.6906   16.8536  -31.7422 C   0  0  0  0  0  0  0  0  0  0  0  0
  -18.4755   16.3990  -32.5731 O   0  0  0  0  0  0  0  0  0  0  0  0
  -16.6011   17.6442  -32.1297 N   0  0  0  0  0  0  0  0  0  0  0  0
  2  3  2  0
  3  4  1  0
  4  5  1  0
  5  6  1  0
  6  7  1  0
  7  8  2  0
  8  9  1  0
  9 10  2  0
 10 11  1  0
 11 12  2  0
  6 13  1  0
 13 14  1  0
 14 15  1  0
 15 16  1  0
 16 17  1  0
 17 18  1  0
 18 19  2  0
 19 20  1  0
 20 21  2  0
 21 22  1  0
 22 23  2  0
 16 24  1  0
 24 25  1  0
  6 26  1  0
 26 27  2  0
 26 28  1  0
 28  3  1  0
 12  7  1  0
 25 13  1  0
 23 18  1  0
M  END
$$$$
