
     RDKit          3D

 27 30  0  0  0  0  0  0  0  0999 V2000
  -20.4909   39.9473  -18.1278 N   0  0  0  0  0  0  0  0  0  0  0  0
  -20.2880   39.8559  -19.5172 C   0  0  0  0  0  0  0  0  0  0  0  0
  -19.2223   39.6311  -20.1274 N   0  0  0  0  0  0  0  0  0  0  0  0
  -18.8929   39.5178  -21.4995 C   0  0  1  0  0  0  0  0  0  0  0  0
  -18.1763   40.7799  -21.8864 C   0  0  0  0  0  0  0  0  0  0  0  0
  -17.2181   41.2774  -21.0018 C   0  0  0  0  0  0  0  0  0  0  0  0
  -16.4943   42.4248  -21.2480 C   0  0  0  0  0  0  0  0  0  0  0  0
  -15.5152   42.9936  -20.4157 N   0  0  0  0  0  0  0  0  0  0  0  0
  -15.5244   44.2835  -19.8651 C   0  0  0  0  0  0  0  0  0  0  0  0
  -16.3510   45.1240  -20.2331 O   0  0  0  0  0  0  0  0  0  0  0  0
  -14.5575   44.6964  -18.8298 C   0  0  0  0  0  0  0  0  0  0  0  0
  -13.6407   43.8333  -18.2998 C   0  0  0  0  0  0  0  0  0  0  0  0
  -12.7548   44.2593  -17.3341 C   0  0  0  0  0  0  0  0  0  0  0  0
  -12.7865   45.5599  -16.8950 C   0  0  0  0  0  0  0  0  0  0  0  0
  -11.9366   46.0291  -15.9468 F   0  0  0  0  0  0  0  0  0  0  0  0
  -13.7326   46.3989  -17.4606 C   0  0  0  0  0  0  0  0  0  0  0  0
  -14.5895   45.9679  -18.4015 N   0  0  0  0  0  0  0  0  0  0  0  0
  -16.7620   43.0960  -22.4552 C   0  0  0  0  0  0  0  0  0  0  0  0
  -17.6973   42.6313  -23.3434 C   0  0  0  0  0  0  0  0  0  0  0  0
  -18.3976   41.4634  -23.0368 C   0  0  0  0  0  0  0  0  0  0  0  0
  -19.3057   41.0261  -23.9102 F   0  0  0  0  0  0  0  0  0  0  0  0
  -17.9780   38.3200  -21.6777 C   0  0  0  0  0  0  0  0  0  0  0  0
  -18.1440   37.8768  -22.9628 O   0  0  0  0  0  0  0  0  0  0  0  0
  -19.4892   38.0690  -23.2616 C   0  0  0  0  0  0  0  0  0  0  0  0
  -19.9577   39.2771  -22.4921 C   0  0  1  0  0  0  0  0  0  0  0  0
  -21.3298   38.9151  -21.9721 C   0  0  0  0  0  0  0  0  0  0  0  0
  -21.7336   40.0658  -20.5939 S   0  0  0  0  0  0  0  0  0  0  0  0
  1  2  1  0
  2  3  2  0
  3  4  1  0
  4  5  1  6
  5  6  2  0
  6  7  1  0
  7  8  1  0
  8  9  1  0
  9 10  2  0
  9 11  1  0
 11 12  2  0
 12 13  1  0
 13 14  2  0
 14 15  1  0
 14 16  1  0
 16 17  2  0
  7 18  2  0
 18 19  1  0
 19 20  2  0
 20 21  1  0
  4 22  1  0
 22 23  1  0
 23 24  1  0
 25 24  1  6
 25 26  1  0
 26 27  1  0
 27  2  1  0
 25  4  1  0
 20  5  1  0
 17 11  1  0
M  END
$$$$
