
     RDKit          3D

 35 38  0  0  0  0  0  0  0  0999 V2000
  -11.1534   20.6832  -47.5588 C   0  0  0  0  0  0  0  0  0  0  0  0
  -11.1594   21.7251  -46.5814 N   0  0  0  0  0  0  0  0  0  0  0  0
  -12.4207   21.8580  -45.8936 C   0  0  1  0  0  0  0  0  0  0  0  0
  -13.4808   22.0917  -46.9650 C   0  0  0  0  0  0  0  0  0  0  0  0
  -12.6866   20.5299  -45.2129 C   0  0  0  0  0  0  0  0  0  0  0  0
  -13.4238   19.7471  -45.8443 O   0  0  0  0  0  0  0  0  0  0  0  0
  -12.1221   20.2434  -43.9596 N   0  0  0  0  0  0  0  0  0  0  0  0
  -12.2243   19.0571  -43.1509 C   0  0  2  0  0  0  0  0  0  0  0  0
  -13.5448   18.8335  -42.6078 C   0  0  0  0  0  0  0  0  0  0  0  0
  -13.9297   19.7054  -41.7151 O   0  0  0  0  0  0  0  0  0  0  0  0
  -14.4847   17.8189  -42.8966 N   0  0  0  0  0  0  0  0  0  0  0  0
  -14.2635   16.8599  -43.9612 C   0  0  0  0  0  0  0  0  0  0  0  0
  -14.7380   15.5715  -43.2909 C   0  0  0  0  0  0  0  0  0  0  0  0
  -15.9870   16.0435  -42.6099 C   0  0  0  0  0  0  0  0  0  0  0  0
  -15.6943   17.5026  -42.2318 C   0  0  1  0  0  0  0  0  0  0  0  0
  -15.5382   17.5257  -40.7250 C   0  0  0  0  0  0  0  0  0  0  0  0
  -16.0978   17.7940  -39.7362 N   0  0  0  0  0  0  0  0  0  0  0  0
  -15.7585   17.7446  -38.4852 C   0  0  0  0  0  0  0  0  0  0  0  0
  -16.6350   18.1074  -37.3136 C   0  0  0  0  0  0  0  0  0  0  0  0
  -17.6452   18.8044  -37.5279 O   0  0  0  0  0  0  0  0  0  0  0  0
  -16.3266   17.6669  -35.9697 C   0  0  0  0  0  0  0  0  0  0  0  0
  -15.9302   16.3350  -35.8327 C   0  0  0  0  0  0  0  0  0  0  0  0
  -15.6574   15.8740  -34.5768 C   0  0  0  0  0  0  0  0  0  0  0  0
  -15.7465   16.6334  -33.4376 C   0  0  0  0  0  0  0  0  0  0  0  0
  -15.4491   16.0606  -32.2550 F   0  0  0  0  0  0  0  0  0  0  0  0
  -16.1378   17.9418  -33.5854 C   0  0  0  0  0  0  0  0  0  0  0  0
  -16.4247   18.4470  -34.8487 C   0  0  0  0  0  0  0  0  0  0  0  0
  -14.4545   17.2707  -38.3048 C   0  0  0  0  0  0  0  0  0  0  0  0
  -13.8898   16.9580  -39.9967 S   0  0  0  0  0  0  0  0  0  0  0  0
  -11.0901   19.0516  -42.1239 C   0  0  0  0  0  0  0  0  0  0  0  0
   -9.8070   19.0158  -42.9548 C   0  0  0  0  0  0  0  0  0  0  0  0
   -8.6211   18.7402  -42.0694 C   0  0  0  0  0  0  0  0  0  0  0  0
   -8.9774   19.1388  -40.6632 C   0  0  0  0  0  0  0  0  0  0  0  0
  -10.0159   18.1656  -40.1450 C   0  0  0  0  0  0  0  0  0  0  0  0
  -11.0527   17.8589  -41.2346 C   0  0  0  0  0  0  0  0  0  0  0  0
  1  2  1  0
  2  3  1  0
  3  4  1  6
  3  5  1  0
  5  6  2  0
  5  7  1  0
  8  7  1  1
  8  9  1  0
  9 10  2  0
  9 11  1  0
 11 12  1  0
 12 13  1  0
 13 14  1  0
 14 15  1  0
 15 16  1  1
 16 17  2  0
 17 18  1  0
 18 19  1  0
 19 20  2  0
 19 21  1  0
 21 22  2  0
 22 23  1  0
 23 24  2  0
 24 25  1  0
 24 26  1  0
 26 27  2  0
 18 28  2  0
 28 29  1  0
  8 30  1  0
 30 31  1  0
 31 32  1  0
 32 33  1  0
 33 34  1  0
 34 35  1  0
 15 11  1  0
 29 16  1  0
 35 30  1  0
 27 21  1  0
M  END
$$$$
