
     RDKit          3D

 21 20  0  0  0  0  0  0  0  0999 V2000
  -35.9032    4.9539  -11.7666 C   0  0  0  0  0  0  0  0  0  0  0  0
  -35.2588    6.1233  -12.4807 C   0  0  0  0  0  0  0  0  0  0  0  0
  -36.0175    6.4450  -13.7601 C   0  0  0  0  0  0  0  0  0  0  0  0
  -35.6967    7.8376  -14.2166 C   0  0  0  0  0  0  0  0  0  0  0  0
  -34.8487    7.9892  -15.3936 C   0  0  0  0  0  0  0  0  0  0  0  0
  -34.3441    9.2553  -15.8868 C   0  0  0  0  0  0  0  0  0  0  0  0
  -33.4349    9.3496  -17.0419 C   0  0  0  0  0  0  0  0  0  0  0  0
  -33.2479   10.8561  -17.3274 C   0  0  0  0  0  0  0  0  0  0  0  0
  -32.2642   11.1390  -18.4029 C   0  0  0  0  0  0  0  0  0  0  0  0
  -32.0094   12.5782  -18.5764 C   0  0  0  0  0  0  0  0  0  0  0  0
  -31.1344   13.0192  -19.6534 C   0  0  0  0  0  0  0  0  0  0  0  0
  -31.6731   13.2973  -20.9802 C   0  0  0  0  0  0  0  0  0  0  0  0
  -31.4468   14.6464  -21.5484 C   0  0  0  0  0  0  0  0  0  0  0  0
  -30.4397   14.4398  -22.6824 C   0  0  0  0  0  0  0  0  0  0  0  0
  -29.3989   15.2405  -22.7264 C   0  0  0  0  0  0  0  0  0  0  0  0
  -28.5033   15.1441  -23.9160 C   0  0  1  0  0  0  0  0  0  0  0  0
  -29.1285   15.6098  -25.0466 O   0  0  0  0  0  0  0  0  0  0  0  0
  -27.2651   15.9907  -23.6260 C   0  0  1  0  0  0  0  0  0  0  0  0
  -27.2759   17.1840  -24.4651 N   0  0  0  0  0  0  0  0  0  0  0  0
  -27.3451   16.4123  -22.1891 C   0  0  0  0  0  0  0  0  0  0  0  0
  -26.1040   16.2819  -21.5687 O   0  0  0  0  0  0  0  0  0  0  0  0
  1  2  1  0
  2  3  1  0
  3  4  1  0
  4  5  1  0
  5  6  1  0
  6  7  1  0
  7  8  1  0
  8  9  1  0
  9 10  1  0
 10 11  1  0
 11 12  1  0
 12 13  1  0
 13 14  1  0
 14 15  2  0
 15 16  1  0
 16 17  1  6
 16 18  1  0
 18 19  1  6
 18 20  1  0
 20 21  1  0
M  END
$$$$
