
     RDKit          3D

 40 42  0  0  0  0  0  0  0  0999 V2000
  -15.7354   13.7045  -37.2455 C   0  0  0  0  0  0  0  0  0  0  0  0
  -15.5664   15.1374  -37.6152 C   0  0  0  0  0  0  0  0  0  0  0  0
  -15.8982   15.5659  -38.8789 C   0  0  0  0  0  0  0  0  0  0  0  0
  -15.7522   16.9063  -39.2910 C   0  0  0  0  0  0  0  0  0  0  0  0
  -16.0970   17.2624  -40.5461 O   0  0  0  0  0  0  0  0  0  0  0  0
  -15.4024   18.1218  -41.3968 C   0  0  1  0  0  0  0  0  0  0  0  0
  -15.3081   17.4710  -42.7347 C   0  0  0  0  0  0  0  0  0  0  0  0
  -14.5095   18.1596  -43.7614 C   0  0  0  0  0  0  0  0  0  0  0  0
  -14.4477   17.5497  -45.1302 C   0  0  0  0  0  0  0  0  0  0  0  0
  -13.6955   18.2773  -46.0109 F   0  0  0  0  0  0  0  0  0  0  0  0
  -15.7675   17.6075  -45.6919 F   0  0  0  0  0  0  0  0  0  0  0  0
  -14.1749   16.2163  -45.0862 F   0  0  0  0  0  0  0  0  0  0  0  0
  -16.0584   19.4613  -41.5117 C   0  0  0  0  0  0  0  0  0  0  0  0
  -15.3339   20.5907  -41.7961 C   0  0  0  0  0  0  0  0  0  0  0  0
  -15.9441   21.8501  -41.9234 C   0  0  0  0  0  0  0  0  0  0  0  0
  -17.3040   21.9956  -41.7650 C   0  0  0  0  0  0  0  0  0  0  0  0
  -17.9837   23.2919  -41.8865 C   0  0  0  0  0  0  0  0  0  0  0  0
  -17.2896   24.2514  -42.3263 O   0  0  0  0  0  0  0  0  0  0  0  0
  -19.3445   23.4533  -41.5288 N   0  0  0  0  0  0  0  0  0  0  0  0
  -19.8835   24.7901  -41.4249 C   0  0  0  0  0  0  0  0  0  0  0  0
  -21.3480   24.7526  -41.7964 C   0  0  0  0  0  0  0  0  0  0  0  0
  -21.9228   26.1261  -41.6890 C   0  0  0  0  0  0  0  0  0  0  0  0
  -21.1351   27.0635  -41.3860 O   0  0  0  0  0  0  0  0  0  0  0  0
  -23.2738   26.3013  -41.9204 O   0  0  0  0  0  0  0  0  0  0  0  0
  -18.0162   20.8391  -41.4766 C   0  0  0  0  0  0  0  0  0  0  0  0
  -17.4300   19.5982  -41.3495 C   0  0  0  0  0  0  0  0  0  0  0  0
  -15.2561   17.7829  -38.3638 C   0  0  0  0  0  0  0  0  0  0  0  0
  -14.8987   17.4152  -37.0622 C   0  0  0  0  0  0  0  0  0  0  0  0
  -14.3663   18.4159  -36.1115 C   0  0  0  0  0  0  0  0  0  0  0  0
  -15.0728   16.0882  -36.7410 C   0  0  0  0  0  0  0  0  0  0  0  0
  -14.7320   15.6323  -35.4085 C   0  0  0  0  0  0  0  0  0  0  0  0
  -13.5026   15.1028  -35.1200 C   0  0  0  0  0  0  0  0  0  0  0  0
  -13.2184   14.6827  -33.8401 C   0  0  0  0  0  0  0  0  0  0  0  0
  -14.1162   14.7614  -32.7965 C   0  0  0  0  0  0  0  0  0  0  0  0
  -13.7720   14.3006  -31.4198 C   0  0  0  0  0  0  0  0  0  0  0  0
  -14.4514   12.9746  -31.1175 C   0  0  0  0  0  0  0  0  0  0  0  0
  -12.2654   14.1686  -31.3678 C   0  0  0  0  0  0  0  0  0  0  0  0
  -14.1945   15.3576  -30.4501 C   0  0  0  0  0  0  0  0  0  0  0  0
  -15.3455   15.2991  -33.1220 C   0  0  0  0  0  0  0  0  0  0  0  0
  -15.6496   15.7255  -34.3972 C   0  0  0  0  0  0  0  0  0  0  0  0
  1  2  1  0
  2  3  2  0
  3  4  1  0
  4  5  1  0
  5  6  1  0
  6  7  1  6
  7  8  1  0
  8  9  1  0
  9 10  1  0
  9 11  1  0
  9 12  1  0
  6 13  1  0
 13 14  2  0
 14 15  1  0
 15 16  2  0
 16 17  1  0
 17 18  2  0
 17 19  1  0
 19 20  1  0
 20 21  1  0
 21 22  1  0
 22 23  2  0
 22 24  1  0
 16 25  1  0
 25 26  2  0
  4 27  2  0
 27 28  1  0
 28 29  1  0
 28 30  2  0
 30 31  1  0
 31 32  2  0
 32 33  1  0
 33 34  2  0
 34 35  1  0
 35 36  1  0
 35 37  1  0
 35 38  1  0
 34 39  1  0
 39 40  2  0
 30  2  1  0
 40 31  1  0
 26 13  1  0
M  END
$$$$
