
     RDKit          3D

 30 32  0  0  0  0  0  0  0  0999 V2000
  -25.4681   21.2335  -35.3337 C   0  0  0  0  0  0  0  0  0  0  0  0
  -24.3954   20.8177  -34.4219 C   0  0  0  0  0  0  0  0  0  0  0  0
  -24.6632   20.0030  -33.2285 C   0  0  0  0  0  0  0  0  0  0  0  0
  -23.5390   19.9174  -32.2605 N   0  0  0  0  0  0  0  0  0  0  0  0
  -22.3271   19.6376  -33.0350 C   0  0  0  0  0  0  0  0  0  0  0  0
  -21.1894   19.4906  -31.9800 C   0  0  0  0  0  0  0  0  0  0  0  0
  -21.4242   18.1644  -31.4768 N   0  0  0  0  0  0  0  0  0  0  0  0
  -20.3918   17.5362  -30.6974 C   0  0  0  0  0  0  0  0  0  0  0  0
  -20.7875   16.4989  -29.9543 C   0  0  0  0  0  0  0  0  0  0  0  0
  -19.8345   15.6183  -29.4912 C   0  0  0  0  0  0  0  0  0  0  0  0
  -18.5224   15.8401  -29.8164 C   0  0  0  0  0  0  0  0  0  0  0  0
  -17.5666   14.7114  -29.5010 C   0  0  0  0  0  0  0  0  0  0  0  0
  -18.0402   13.5714  -29.5087 O   0  0  0  0  0  0  0  0  0  0  0  0
  -16.2333   15.0583  -29.2614 N   0  0  0  0  0  0  0  0  0  0  0  0
  -15.2237   14.0306  -29.1995 C   0  0  0  0  0  0  0  0  0  0  0  0
  -14.4132   13.8197  -30.4271 C   0  0  0  0  0  0  0  0  0  0  0  0
  -13.4294   12.9899  -30.3451 O   0  0  0  0  0  0  0  0  0  0  0  0
  -14.7423   14.5370  -31.5778 N   0  0  0  0  0  0  0  0  0  0  0  0
  -13.9633   14.6482  -32.8327 C   0  0  0  0  0  0  0  0  0  0  0  0
  -13.0564   15.7804  -32.3348 C   0  0  0  0  0  0  0  0  0  0  0  0
  -12.2178   16.7882  -31.8827 N   0  0  0  0  0  0  0  0  0  0  0  0
  -14.3958   14.1240  -27.9978 C   0  0  0  0  0  0  0  0  0  0  0  0
  -13.8475   12.8931  -27.4397 C   0  0  0  0  0  0  0  0  0  0  0  0
  -13.8308   11.6388  -28.2649 C   0  0  0  0  0  0  0  0  0  0  0  0
  -14.8001   11.6567  -29.4312 C   0  0  0  0  0  0  0  0  0  0  0  0
  -15.9076   12.6064  -29.1318 C   0  0  0  0  0  0  0  0  0  0  0  0
  -18.1237   16.9083  -30.5672 C   0  0  0  0  0  0  0  0  0  0  0  0
  -19.1127   17.8058  -31.0306 C   0  0  0  0  0  0  0  0  0  0  0  0
  -22.7230   17.5913  -31.7136 C   0  0  0  0  0  0  0  0  0  0  0  0
  -23.8273   18.5713  -31.6212 C   0  0  0  0  0  0  0  0  0  0  0  0
  1  2  1  0
  2  3  1  0
  3  4  1  0
  4  5  1  0
  5  6  1  0
  6  7  1  0
  7  8  1  0
  8  9  2  0
  9 10  1  0
 10 11  2  0
 11 12  1  0
 12 13  2  0
 12 14  1  0
 14 15  1  0
 15 16  1  0
 16 17  2  0
 16 18  1  0
 18 19  1  0
 19 20  1  0
 20 21  3  0
 15 22  1  0
 22 23  1  0
 23 24  1  0
 24 25  1  0
 25 26  1  0
 11 27  1  0
 27 28  2  0
  7 29  1  0
 29 30  1  0
 30  4  1  0
 28  8  1  0
 26 15  1  0
M  END
$$$$
