
     RDKit          3D

 31 34  0  0  0  0  0  0  0  0999 V2000
  -11.7999   44.2028  -18.3002 C   0  0  0  0  0  0  0  0  0  0  0  0
  -12.7118   43.6930  -17.2440 C   0  0  0  0  0  0  0  0  0  0  0  0
  -12.2416   42.8327  -16.3006 N   0  0  0  0  0  0  0  0  0  0  0  0
  -13.0223   42.3386  -15.3197 C   0  0  0  0  0  0  0  0  0  0  0  0
  -14.3449   42.7161  -15.2676 C   0  0  0  0  0  0  0  0  0  0  0  0
  -15.3450   42.0650  -13.9869 Cl  0  0  0  0  0  0  0  0  0  0  0  0
  -14.8286   43.5918  -16.2259 C   0  0  0  0  0  0  0  0  0  0  0  0
  -14.0280   44.0965  -17.2290 C   0  0  0  0  0  0  0  0  0  0  0  0
  -14.5812   45.0002  -18.1955 N   0  0  0  0  0  0  0  0  0  0  0  0
  -15.9564   45.0056  -18.5610 C   0  0  0  0  0  0  0  0  0  0  0  0
  -16.1227   44.0872  -19.7306 C   0  0  0  0  0  0  0  0  0  0  0  0
  -15.4698   44.0705  -20.9184 C   0  0  0  0  0  0  0  0  0  0  0  0
  -15.8269   43.1135  -21.8104 C   0  0  0  0  0  0  0  0  0  0  0  0
  -16.7818   42.2566  -21.4792 C   0  0  0  0  0  0  0  0  0  0  0  0
  -17.3668   41.1200  -22.2528 C   0  0  0  0  0  0  0  0  0  0  0  0
  -16.8291   40.7370  -23.3065 O   0  0  0  0  0  0  0  0  0  0  0  0
  -18.5202   40.4884  -21.7890 N   0  0  0  0  0  0  0  0  0  0  0  0
  -19.3666   39.6191  -22.5813 C   0  0  1  0  0  0  0  0  0  0  0  0
  -19.9615   38.5080  -21.7903 C   0  0  0  0  0  0  0  0  0  0  0  0
  -19.1053   37.8971  -20.7447 C   0  0  0  0  0  0  0  0  0  0  0  0
  -18.2743   36.8083  -21.4434 C   0  0  0  0  0  0  0  0  0  0  0  0
  -19.2417   35.6683  -21.5838 C   0  0  0  0  0  0  0  0  0  0  0  0
  -20.2568   35.8479  -20.4816 C   0  0  0  0  0  0  0  0  0  0  0  0
  -19.8439   37.1043  -19.7194 C   0  0  0  0  0  0  0  0  0  0  0  0
  -20.3031   40.3509  -23.4472 C   0  0  0  0  0  0  0  0  0  0  0  0
  -21.3973   40.7775  -22.9423 O   0  0  0  0  0  0  0  0  0  0  0  0
  -20.0694   40.6153  -24.8098 N   0  0  0  0  0  0  0  0  0  0  0  0
  -20.7267   41.7189  -25.4571 C   0  0  0  0  0  0  0  0  0  0  0  0
  -22.0204   42.1322  -24.7408 C   0  0  0  0  0  0  0  0  0  0  0  0
  -22.0476   41.5466  -26.1112 C   0  0  0  0  0  0  0  0  0  0  0  0
  -17.2377   42.7510  -19.8794 S   0  0  0  0  0  0  0  0  0  0  0  0
  1  2  1  0
  2  3  2  0
  3  4  1  0
  4  5  2  0
  5  6  1  0
  5  7  1  0
  7  8  2  0
  8  9  1  0
  9 10  1  0
 10 11  1  0
 11 12  2  0
 12 13  1  0
 13 14  2  0
 14 15  1  0
 15 16  2  0
 15 17  1  0
 17 18  1  0
 18 19  1  1
 19 20  1  0
 20 21  1  0
 21 22  1  0
 22 23  1  0
 23 24  1  0
 18 25  1  0
 25 26  2  0
 25 27  1  0
 27 28  1  0
 28 29  1  0
 29 30  1  0
 14 31  1  0
  8  2  1  0
 31 11  1  0
 24 20  1  0
 30 28  1  0
M  END
$$$$
