
     RDKit          3D

 28 30  0  0  0  0  0  0  0  0999 V2000
  -15.2623   17.8579  -44.0608 C   0  0  0  0  0  0  0  0  0  0  0  0
  -13.9737   17.8803  -43.4031 N   0  0  0  0  0  0  0  0  0  0  0  0
  -12.8321   17.9023  -44.1428 N   0  0  0  0  0  0  0  0  0  0  0  0
  -11.7758   17.9080  -43.3697 C   0  0  0  0  0  0  0  0  0  0  0  0
  -12.2902   17.8885  -42.0641 C   0  0  0  0  0  0  0  0  0  0  0  0
  -11.2410   17.8952  -40.6705 Cl  0  0  0  0  0  0  0  0  0  0  0  0
  -13.6836   17.8714  -42.1003 C   0  0  0  0  0  0  0  0  0  0  0  0
  -14.5449   17.8312  -40.9131 C   0  0  0  0  0  0  0  0  0  0  0  0
  -15.6085   18.7402  -40.7543 C   0  0  0  0  0  0  0  0  0  0  0  0
  -16.2510   18.4532  -39.5604 C   0  0  0  0  0  0  0  0  0  0  0  0
  -17.4197   19.2172  -39.0774 C   0  0  0  0  0  0  0  0  0  0  0  0
  -17.7742   20.1966  -39.7450 O   0  0  0  0  0  0  0  0  0  0  0  0
  -18.1186   18.8667  -37.9094 N   0  0  0  0  0  0  0  0  0  0  0  0
  -19.3101   19.5344  -37.4442 C   0  0  2  0  0  0  0  0  0  0  0  0
  -18.9173   20.5902  -36.4514 C   0  0  0  0  0  0  0  0  0  0  0  0
  -18.3770   20.0320  -35.2309 N   0  0  0  0  0  0  0  0  0  0  0  0
  -20.3526   18.5831  -36.9331 C   0  0  0  0  0  0  0  0  0  0  0  0
  -21.6364   18.8810  -37.6202 C   0  0  0  0  0  0  0  0  0  0  0  0
  -22.4161   19.9753  -37.2747 C   0  0  0  0  0  0  0  0  0  0  0  0
  -23.5890   20.2407  -37.9083 C   0  0  0  0  0  0  0  0  0  0  0  0
  -24.0154   19.4078  -38.9149 C   0  0  0  0  0  0  0  0  0  0  0  0
  -25.2054   19.7312  -39.5124 F   0  0  0  0  0  0  0  0  0  0  0  0
  -23.2883   18.3070  -39.3041 C   0  0  0  0  0  0  0  0  0  0  0  0
  -23.7550   17.5246  -40.2979 F   0  0  0  0  0  0  0  0  0  0  0  0
  -22.1056   18.0751  -38.6355 C   0  0  0  0  0  0  0  0  0  0  0  0
  -15.6456   17.4704  -39.0397 O   0  0  0  0  0  0  0  0  0  0  0  0
  -14.6150   17.0608  -39.8128 C   0  0  0  0  0  0  0  0  0  0  0  0
  -13.6286   15.7237  -39.3160 Cl  0  0  0  0  0  0  0  0  0  0  0  0
  1  2  1  0
  2  3  1  0
  3  4  2  0
  4  5  1  0
  5  6  1  0
  5  7  2  0
  7  8  1  0
  8  9  1  0
  9 10  2  0
 10 11  1  0
 11 12  2  0
 11 13  1  0
 13 14  1  0
 14 15  1  1
 15 16  1  0
 14 17  1  0
 17 18  1  0
 18 19  2  0
 19 20  1  0
 20 21  2  0
 21 22  1  0
 21 23  1  0
 23 24  1  0
 23 25  2  0
 10 26  1  0
 26 27  1  0
 27 28  1  0
  7  2  1  0
 27  8  2  0
 25 18  1  0
M  END
$$$$
