
     RDKit          3D

 20 22  0  0  0  0  0  0  0  0999 V2000
  -18.8794   40.1843  -17.4746 O   0  0  0  0  0  0  0  0  0  0  0  0
  -18.5914   40.6296  -18.6175 C   0  0  0  0  0  0  0  0  0  0  0  0
  -19.2420   40.3510  -19.8897 C   0  0  0  0  0  0  0  0  0  0  0  0
  -20.2181   39.6096  -20.0845 O   0  0  0  0  0  0  0  0  0  0  0  0
  -18.5687   41.0793  -20.9044 N   0  0  0  0  0  0  0  0  0  0  0  0
  -18.8976   41.0877  -22.3378 C   0  0  0  0  0  0  0  0  0  0  0  0
  -19.9941   42.0922  -22.5406 C   0  0  0  0  0  0  0  0  0  0  0  0
  -20.3097   42.2534  -23.9796 C   0  0  0  0  0  0  0  0  0  0  0  0
  -21.2921   41.5423  -24.6283 C   0  0  0  0  0  0  0  0  0  0  0  0
  -21.5444   41.7361  -25.9836 C   0  0  0  0  0  0  0  0  0  0  0  0
  -20.8111   42.6510  -26.7121 C   0  0  0  0  0  0  0  0  0  0  0  0
  -19.8190   43.3708  -26.0620 C   0  0  0  0  0  0  0  0  0  0  0  0
  -19.5684   43.1780  -24.7149 C   0  0  0  0  0  0  0  0  0  0  0  0
  -17.5240   41.7902  -20.2581 C   0  0  0  0  0  0  0  0  0  0  0  0
  -16.5584   42.6561  -20.7668 C   0  0  0  0  0  0  0  0  0  0  0  0
  -15.6181   43.2529  -19.9573 C   0  0  0  0  0  0  0  0  0  0  0  0
  -15.5946   43.0157  -18.6015 C   0  0  0  0  0  0  0  0  0  0  0  0
  -14.2783   43.8518  -17.4714 Br  0  0  0  0  0  0  0  0  0  0  0  0
  -16.5409   42.1637  -18.0839 C   0  0  0  0  0  0  0  0  0  0  0  0
  -17.4965   41.5564  -18.9029 C   0  0  0  0  0  0  0  0  0  0  0  0
  1  2  2  0
  2  3  1  0
  3  4  2  0
  3  5  1  0
  5  6  1  0
  6  7  1  0
  7  8  1  0
  8  9  2  0
  9 10  1  0
 10 11  2  0
 11 12  1  0
 12 13  2  0
  5 14  1  0
 14 15  2  0
 15 16  1  0
 16 17  2  0
 17 18  1  0
 17 19  1  0
 19 20  2  0
 20  2  1  0
 13  8  1  0
 20 14  1  0
M  END
$$$$
