
     RDKit          3D

 35 38  0  0  0  0  0  0  0  0999 V2000
  -19.4489   -1.0027  -35.1659 C   0  0  0  0  0  0  0  0  0  0  0  0
  -19.4954   -1.7937  -33.8906 C   0  0  1  0  0  0  0  0  0  0  0  0
  -18.3019   -2.2390  -33.4500 O   0  0  0  0  0  0  0  0  0  0  0  0
  -17.4090   -1.3111  -33.0620 C   0  0  0  0  0  0  0  0  0  0  0  0
  -16.1820   -1.8785  -32.4067 C   0  0  1  0  0  0  0  0  0  0  0  0
  -15.0658   -0.9642  -32.7273 C   0  0  0  0  0  0  0  0  0  0  0  0
  -14.5398   -0.0480  -31.8426 C   0  0  0  0  0  0  0  0  0  0  0  0
  -13.4759    0.7636  -32.2118 C   0  0  0  0  0  0  0  0  0  0  0  0
  -12.8944    0.7073  -33.4501 C   0  0  0  0  0  0  0  0  0  0  0  0
  -13.4125   -0.2037  -34.3389 C   0  0  0  0  0  0  0  0  0  0  0  0
  -14.4911   -1.0309  -33.9726 C   0  0  0  0  0  0  0  0  0  0  0  0
  -16.3568   -1.8576  -30.8742 C   0  0  0  0  0  0  0  0  0  0  0  0
  -15.0537   -2.3772  -30.3095 C   0  0  0  0  0  0  0  0  0  0  0  0
  -14.9444   -3.8472  -30.6583 C   0  0  1  0  0  0  0  0  0  0  0  0
  -13.5688   -4.2088  -31.1637 C   0  0  0  0  0  0  0  0  0  0  0  0
  -13.5807   -5.7225  -31.0436 C   0  0  0  0  0  0  0  0  0  0  0  0
  -14.4581   -5.9316  -29.8532 C   0  0  0  0  0  0  0  0  0  0  0  0
  -14.6689   -7.0128  -29.2248 O   0  0  0  0  0  0  0  0  0  0  0  0
  -15.0682   -4.6920  -29.4857 N   0  0  0  0  0  0  0  0  0  0  0  0
  -15.9842   -4.1903  -31.6703 C   0  0  0  0  0  0  0  0  0  0  0  0
  -15.9767   -3.2231  -32.7378 N   0  0  0  0  0  0  0  0  0  0  0  0
  -19.9452   -0.7864  -32.8220 C   0  0  0  0  0  0  0  0  0  0  0  0
  -19.6843    0.5392  -32.9241 C   0  0  0  0  0  0  0  0  0  0  0  0
  -20.0798    1.4722  -31.9716 C   0  0  0  0  0  0  0  0  0  0  0  0
  -19.7819    2.9215  -32.1054 C   0  0  0  0  0  0  0  0  0  0  0  0
  -18.5018    3.2238  -31.7608 F   0  0  0  0  0  0  0  0  0  0  0  0
  -20.7118    3.5862  -31.3008 F   0  0  0  0  0  0  0  0  0  0  0  0
  -20.0969    3.2819  -33.4119 F   0  0  0  0  0  0  0  0  0  0  0  0
  -20.7693    0.9664  -30.8894 C   0  0  0  0  0  0  0  0  0  0  0  0
  -21.0519   -0.3940  -30.7586 C   0  0  0  0  0  0  0  0  0  0  0  0
  -21.7925   -0.9076  -29.5881 C   0  0  0  0  0  0  0  0  0  0  0  0
  -22.5743    0.0956  -29.0043 F   0  0  0  0  0  0  0  0  0  0  0  0
  -22.6188   -1.9650  -29.9009 F   0  0  0  0  0  0  0  0  0  0  0  0
  -20.9379   -1.3426  -28.5960 F   0  0  0  0  0  0  0  0  0  0  0  0
  -20.6283   -1.2845  -31.7492 C   0  0  0  0  0  0  0  0  0  0  0  0
  2  1  1  6
  2  3  1  0
  3  4  1  0
  5  4  1  6
  5  6  1  0
  6  7  2  0
  7  8  1  0
  8  9  2  0
  9 10  1  0
 10 11  2  0
  5 12  1  0
 12 13  1  0
 14 13  1  1
 14 15  1  0
 15 16  1  0
 16 17  1  0
 17 18  2  0
 17 19  1  0
 14 20  1  0
 20 21  1  0
  2 22  1  0
 22 23  2  0
 23 24  1  0
 24 25  1  0
 25 26  1  0
 25 27  1  0
 25 28  1  0
 24 29  2  0
 29 30  1  0
 30 31  1  0
 31 32  1  0
 31 33  1  0
 31 34  1  0
 30 35  2  0
 21  5  1  0
 35 22  1  0
 11  6  1  0
 19 14  1  0
M  END
$$$$
