
     RDKit          3D

 14 15  0  0  0  0  0  0  0  0999 V2000
  -25.6163   31.7669  -29.1183 C   0  0  0  0  0  0  0  0  0  0  0  0
  -24.6420   31.4338  -28.1522 O   0  0  0  0  0  0  0  0  0  0  0  0
  -24.2124   30.1278  -27.9882 C   0  0  0  0  0  0  0  0  0  0  0  0
  -23.0538   29.8232  -27.3028 C   0  0  0  0  0  0  0  0  0  0  0  0
  -22.6952   28.4958  -27.1839 C   0  0  0  0  0  0  0  0  0  0  0  0
  -23.4938   27.5031  -27.7473 C   0  0  0  0  0  0  0  0  0  0  0  0
  -24.6493   27.7946  -28.4319 C   0  0  0  0  0  0  0  0  0  0  0  0
  -25.0078   29.1314  -28.5500 C   0  0  0  0  0  0  0  0  0  0  0  0
  -25.5972   26.8839  -29.0805 C   0  0  0  0  0  0  0  0  0  0  0  0
  -24.9916   25.8531  -29.8664 N   0  0  0  0  0  0  0  0  0  0  0  0
  -25.9464   25.4401  -30.8797 C   0  0  0  0  0  0  0  0  0  0  0  0
  -24.6767   24.7026  -29.0514 C   0  0  0  0  0  0  0  0  0  0  0  0
  -23.2373   24.6681  -28.6269 C   0  0  0  0  0  0  0  0  0  0  0  0
  -22.7904   25.9119  -27.4375 S   0  0  0  0  0  0  0  0  0  0  0  0
  1  2  1  0
  2  3  1  0
  3  4  2  0
  4  5  1  0
  5  6  2  0
  6  7  1  0
  7  8  2  0
  7  9  1  0
  9 10  1  0
 10 11  1  0
 10 12  1  0
 12 13  1  0
 13 14  1  0
  8  3  1  0
 14  6  1  0
M  END
$$$$
