
     RDKit          3D

 13 13  0  0  0  0  0  0  0  0999 V2000
  -19.8899   18.3637  -39.0332 O   0  0  0  0  0  0  0  0  0  0  0  0
  -19.0799   19.0643  -38.3947 C   0  0  0  0  0  0  0  0  0  0  0  0
  -19.5161   20.2317  -37.8065 O   0  0  0  0  0  0  0  0  0  0  0  0
  -17.6866   18.5997  -38.3049 C   0  0  0  0  0  0  0  0  0  0  0  0
  -16.9078   18.4622  -36.7027 S   0  0  0  0  0  0  0  0  0  0  0  0
  -16.9903   18.2669  -39.3524 C   0  0  0  0  0  0  0  0  0  0  0  0
  -15.5615   17.9647  -39.3752 C   0  0  0  0  0  0  0  0  0  0  0  0
  -14.9724   17.3096  -38.2843 C   0  0  0  0  0  0  0  0  0  0  0  0
  -13.6302   17.0167  -38.3137 C   0  0  0  0  0  0  0  0  0  0  0  0
  -12.8365   17.3506  -39.3958 C   0  0  0  0  0  0  0  0  0  0  0  0
  -10.8007   16.8355  -39.2797 I   0  0  0  0  0  0  0  0  0  0  0  0
  -13.3955   17.9923  -40.4743 C   0  0  0  0  0  0  0  0  0  0  0  0
  -14.7408   18.2819  -40.4360 C   0  0  0  0  0  0  0  0  0  0  0  0
  1  2  2  0
  2  3  1  0
  2  4  1  0
  4  5  1  0
  4  6  2  0
  6  7  1  0
  7  8  2  0
  8  9  1  0
  9 10  2  0
 10 11  1  0
 10 12  1  0
 12 13  2  0
 13  7  1  0
M  END
$$$$
