
     RDKit          3D

 31 32  0  0  0  0  0  0  0  0999 V2000
  -14.9184   18.6842  -39.1214 C   0  0  0  0  0  0  0  0  0  0  0  0
  -15.4422   18.0152  -37.9086 C   0  0  0  0  0  0  0  0  0  0  0  0
  -15.0804   16.8315  -37.6132 O   0  0  0  0  0  0  0  0  0  0  0  0
  -16.3538   18.6974  -37.0693 N   0  0  0  0  0  0  0  0  0  0  0  0
  -16.9363   18.0146  -35.9797 C   0  0  0  0  0  0  0  0  0  0  0  0
  -16.1605   17.1647  -35.2271 C   0  0  0  0  0  0  0  0  0  0  0  0
  -16.7287   16.5084  -34.1770 C   0  0  0  0  0  0  0  0  0  0  0  0
  -18.0478   16.6573  -33.8348 C   0  0  0  0  0  0  0  0  0  0  0  0
  -18.6877   16.0501  -32.8240 O   0  0  0  0  0  0  0  0  0  0  0  0
  -19.5654   15.1193  -32.4575 C   0  0  0  0  0  0  0  0  0  0  0  0
  -19.8593   14.8914  -30.9924 C   0  0  2  0  0  0  0  0  0  0  0  0
  -20.8393   13.8023  -30.7538 C   0  0  0  0  0  0  0  0  0  0  0  0
  -20.2247   16.0753  -30.3608 O   0  0  0  0  0  0  0  0  0  0  0  0
  -18.5293   14.4123  -30.4059 C   0  0  0  0  0  0  0  0  0  0  0  0
  -17.9877   13.4011  -30.8910 O   0  0  0  0  0  0  0  0  0  0  0  0
  -17.9372   15.1143  -29.3325 N   0  0  0  0  0  0  0  0  0  0  0  0
  -16.7447   14.7592  -28.6699 C   0  0  0  0  0  0  0  0  0  0  0  0
  -16.3757   15.5062  -27.5584 C   0  0  0  0  0  0  0  0  0  0  0  0
  -15.2301   15.2396  -26.8444 C   0  0  0  0  0  0  0  0  0  0  0  0
  -14.3855   14.2057  -27.2046 C   0  0  0  0  0  0  0  0  0  0  0  0
  -13.2093   14.0048  -26.4393 N   0  0  0  0  0  4  0  0  0  0  0  0
  -12.4606   15.0274  -26.2955 O   0  0  0  0  0  0  0  0  0  0  0  0
  -12.8477   12.8216  -25.8746 O   0  0  0  0  0  1  0  0  0  0  0  0
  -14.7362   13.4638  -28.2937 C   0  0  0  0  0  0  0  0  0  0  0  0
  -13.9104   12.3149  -28.7493 C   0  0  0  0  0  0  0  0  0  0  0  0
  -13.7793   11.3402  -27.7838 F   0  0  0  0  0  0  0  0  0  0  0  0
  -14.4606   11.7244  -29.8678 F   0  0  0  0  0  0  0  0  0  0  0  0
  -12.6510   12.8276  -29.0729 F   0  0  0  0  0  0  0  0  0  0  0  0
  -15.9115   13.7472  -29.0160 C   0  0  0  0  0  0  0  0  0  0  0  0
  -18.8412   17.5404  -34.6211 C   0  0  0  0  0  0  0  0  0  0  0  0
  -18.2487   18.1811  -35.6610 C   0  0  0  0  0  0  0  0  0  0  0  0
  1  2  1  0
  2  3  2  0
  2  4  1  0
  4  5  1  0
  5  6  2  0
  6  7  1  0
  7  8  2  0
  8  9  1  0
  9 10  1  0
 10 11  1  0
 11 12  1  6
 11 13  1  0
 11 14  1  0
 14 15  2  0
 14 16  1  0
 16 17  1  0
 17 18  2  0
 18 19  1  0
 19 20  2  0
 20 21  1  0
 21 22  2  0
 21 23  1  0
 20 24  1  0
 24 25  1  0
 25 26  1  0
 25 27  1  0
 25 28  1  0
 24 29  2  0
  8 30  1  0
 30 31  2  0
 31  5  1  0
 29 17  1  0
M  CHG  2  21   1  23  -1
M  END
$$$$
