
     RDKit          3D

  5  3  0  0  0  0  0  0  0  0999 V2000
  -17.4679   36.4026  -20.5019 O   0  0  0  0  0  0  0  0  0  0  0  0
  -17.8075   37.1199  -21.4761 C   0  0  0  0  0  0  0  0  0  0  0  0
  -16.9032   37.7329  -22.3327 O   0  0  0  0  0  1  0  0  0  0  0  0
  -19.1845   37.2800  -21.6670 O   0  0  0  0  0  0  0  0  0  0  0  0
  -18.2287   37.0025  -21.4847 Na  0  0  0  0  0 15  0  0  0  0  0  0
  1  2  2  0
  2  3  1  0
  2  4  1  0
M  CHG  2   3  -1   5   1
M  END
$$$$
