
     RDKit          3D

 27 29  0  0  0  0  0  0  0  0999 V2000
  -44.7806    7.3560  -34.7780 O   0  0  0  0  0  0  0  0  0  0  0  0
  -43.9580    7.8414  -35.6120 C   0  0  0  0  0  0  0  0  0  0  0  0
  -43.2740    9.0201  -35.2212 N   0  0  0  0  0  0  0  0  0  0  0  0
  -43.1235    9.3510  -33.8178 C   0  0  1  0  0  0  0  0  0  0  0  0
  -41.9942   10.3654  -33.7491 C   0  0  0  0  0  0  0  0  0  0  0  0
  -42.5206   11.7170  -33.3673 C   0  0  0  0  0  0  0  0  0  0  0  0
  -42.4879   11.8090  -31.5512 S   0  0  0  0  0  0  0  0  0  0  0  0
  -43.7338   10.7001  -30.8492 C   0  0  1  0  0  0  0  0  0  0  0  0
  -44.6343   11.5801  -29.9496 C   0  0  0  0  0  0  0  0  0  0  0  0
  -45.6816   12.2483  -30.7997 C   0  0  0  0  0  0  0  0  0  0  0  0
  -46.6632   11.2627  -31.4272 C   0  0  0  0  0  0  0  0  0  0  0  0
  -45.9700    9.9201  -31.4338 C   0  0  1  0  0  0  0  0  0  0  0  0
  -46.6974    8.8277  -32.0415 C   0  0  0  0  0  0  0  0  0  0  0  0
  -46.8052    8.7230  -33.2790 O   0  0  0  0  0  0  0  0  0  0  0  0
  -47.2986    7.8606  -31.2542 O   0  0  0  0  0  0  0  0  0  0  0  0
  -44.6303   10.1565  -31.8735 N   0  0  0  0  0  0  0  0  0  0  0  0
  -44.3619    9.8668  -33.2271 C   0  0  0  0  0  0  0  0  0  0  0  0
  -45.3530   10.0974  -34.0191 O   0  0  0  0  0  0  0  0  0  0  0  0
  -43.7300    7.1918  -36.9400 C   0  0  1  0  0  0  0  0  0  0  0  0
  -42.2354    7.7741  -37.7415 S   0  0  0  0  0  0  0  0  0  0  0  0
  -43.7087    5.6761  -36.8068 C   0  0  0  0  0  0  0  0  0  0  0  0
  -44.6895    5.1387  -37.7719 C   0  0  0  0  0  0  0  0  0  0  0  0
  -44.2737    4.3147  -38.7875 C   0  0  0  0  0  0  0  0  0  0  0  0
  -45.1920    3.8016  -39.7047 C   0  0  0  0  0  0  0  0  0  0  0  0
  -46.5332    4.0999  -39.6249 C   0  0  0  0  0  0  0  0  0  0  0  0
  -46.9463    4.9281  -38.6028 C   0  0  0  0  0  0  0  0  0  0  0  0
  -46.0296    5.4407  -37.6868 C   0  0  0  0  0  0  0  0  0  0  0  0
  1  2  2  0
  2  3  1  0
  4  3  1  6
  4  5  1  0
  5  6  1  0
  6  7  1  0
  7  8  1  0
  8  9  1  1
  9 10  1  0
 10 11  1  0
 11 12  1  0
 12 13  1  6
 13 14  2  0
 13 15  1  0
 12 16  1  0
 16 17  1  0
 17 18  2  0
  2 19  1  0
 19 20  1  1
 19 21  1  0
 21 22  1  0
 22 23  2  0
 23 24  1  0
 24 25  2  0
 25 26  1  0
 26 27  2  0
 17  4  1  0
 27 22  1  0
 16  8  1  0
M  END
$$$$
