
     RDKit          3D

 16 16  0  0  0  0  0  0  0  0999 V2000
  -18.1641   41.5206  -17.4965 N   0  0  0  0  0  0  0  0  0  0  0  0
  -19.4950   41.2666  -18.5644 S   0  0  0  0  0  6  0  0  0  0  0  0
  -20.4564   40.3131  -17.9371 O   0  0  0  0  0  0  0  0  0  0  0  0
  -20.1527   42.5628  -18.9419 O   0  0  0  0  0  0  0  0  0  0  0  0
  -18.9289   40.5361  -20.0634 C   0  0  0  0  0  0  0  0  0  0  0  0
  -18.5023   41.2857  -21.1247 C   0  0  0  0  0  0  0  0  0  0  0  0
  -18.0729   40.6414  -22.2666 C   0  0  0  0  0  0  0  0  0  0  0  0
  -17.5182   41.5946  -23.6476 Cl  0  0  0  0  0  0  0  0  0  0  0  0
  -18.0554   39.2708  -22.3839 C   0  0  0  0  0  0  0  0  0  0  0  0
  -17.5187   38.4294  -23.8131 Cl  0  0  0  0  0  0  0  0  0  0  0  0
  -18.4882   38.5210  -21.3067 C   0  0  0  0  0  0  0  0  0  0  0  0
  -18.5072   36.7739  -21.3497 S   0  0  0  0  0  6  0  0  0  0  0  0
  -19.5464   36.2847  -22.6322 N   0  0  0  0  0  0  0  0  0  0  0  0
  -18.9714   36.1938  -20.0468 O   0  0  0  0  0  0  0  0  0  0  0  0
  -17.0883   36.3014  -21.6325 O   0  0  0  0  0  0  0  0  0  0  0  0
  -18.9147   39.1669  -20.1723 C   0  0  0  0  0  0  0  0  0  0  0  0
  1  2  1  0
  2  3  2  0
  2  4  2  0
  2  5  1  0
  5  6  2  0
  6  7  1  0
  7  8  1  0
  7  9  2  0
  9 10  1  0
  9 11  1  0
 11 12  1  0
 12 13  1  0
 12 14  2  0
 12 15  2  0
 11 16  2  0
 16  5  1  0
M  END
$$$$
