
     RDKit          3D

 20 21  0  0  0  0  0  0  0  0999 V2000
  -17.2880   15.0878  -30.4550 O   0  0  0  0  0  0  0  0  0  0  0  0
  -18.0369   14.9295  -29.4500 C   0  0  0  0  0  0  0  0  0  0  0  0
  -19.3708   15.3930  -29.5316 N   0  0  0  0  0  0  0  0  0  0  0  0
  -19.9083   15.9025  -30.7450 C   0  0  0  0  0  0  0  0  0  0  0  0
  -21.2529   15.7916  -31.0246 C   0  0  0  0  0  0  0  0  0  0  0  0
  -21.8341   16.2692  -32.1910 C   0  0  0  0  0  0  0  0  0  0  0  0
  -21.0152   16.8856  -33.1128 C   0  0  0  0  0  0  0  0  0  0  0  0
  -21.6568   17.5186  -34.6107 Cl  0  0  0  0  0  0  0  0  0  0  0  0
  -19.6658   17.0192  -32.8766 C   0  0  0  0  0  0  0  0  0  0  0  0
  -18.6559   17.8063  -34.0668 Cl  0  0  0  0  0  0  0  0  0  0  0  0
  -19.1134   16.5278  -31.6935 C   0  0  0  0  0  0  0  0  0  0  0  0
  -17.5011   14.2994  -28.3028 N   0  0  0  0  0  0  0  0  0  0  0  0
  -16.1236   13.9843  -28.1411 C   0  0  0  0  0  0  0  0  0  0  0  0
  -15.4939   14.1538  -26.9221 C   0  0  0  0  0  0  0  0  0  0  0  0
  -14.1533   13.8481  -26.7610 C   0  0  0  0  0  0  0  0  0  0  0  0
  -13.3937   13.3665  -27.7957 C   0  0  0  0  0  0  0  0  0  0  0  0
  -11.7030   12.9717  -27.6264 Cl  0  0  0  0  0  0  0  0  0  0  0  0
  -14.0107   13.1903  -29.0271 C   0  0  0  0  0  0  0  0  0  0  0  0
  -13.0470   12.5736  -30.3608 Cl  0  0  0  0  0  0  0  0  0  0  0  0
  -15.3469   13.4990  -29.1730 C   0  0  0  0  0  0  0  0  0  0  0  0
  1  2  2  0
  2  3  1  0
  3  4  1  0
  4  5  2  0
  5  6  1  0
  6  7  2  0
  7  8  1  0
  7  9  1  0
  9 10  1  0
  9 11  2  0
  2 12  1  0
 12 13  1  0
 13 14  2  0
 14 15  1  0
 15 16  2  0
 16 17  1  0
 16 18  1  0
 18 19  1  0
 18 20  2  0
 11  4  1  0
 20 13  1  0
M  END
$$$$
