
     RDKit          3D

 29 32  0  0  0  0  0  0  0  0999 V2000
  -20.5206   31.8452  -20.8321 O   0  0  0  0  0  0  0  0  0  0  0  0
  -19.5247   32.3003  -21.4260 N   0  0  0  0  0  4  0  0  0  0  0  0
  -18.5709   31.4097  -21.8436 O   0  0  0  0  0  1  0  0  0  0  0  0
  -19.3976   33.7067  -21.6557 C   0  0  0  0  0  0  0  0  0  0  0  0
  -20.3637   34.5529  -21.2013 C   0  0  0  0  0  0  0  0  0  0  0  0
  -20.3256   35.9253  -21.3765 C   0  0  0  0  0  0  0  0  0  0  0  0
  -19.2437   36.4470  -22.0499 C   0  0  0  0  0  0  0  0  0  0  0  0
  -19.1600   37.9159  -22.2618 C   0  0  0  0  0  0  0  0  0  0  0  0
  -17.9538   38.5787  -21.1203 S   0  0  0  0  0  0  0  0  0  0  0  0
  -18.1042   40.3396  -20.9046 C   0  0  0  0  0  0  0  0  0  0  0  0
  -17.3263   41.0778  -20.0982 N   0  0  0  0  0  0  0  0  0  0  0  0
  -17.5178   42.4137  -20.0006 C   0  0  0  0  0  0  0  0  0  0  0  0
  -18.4652   43.0816  -20.6767 N   0  0  0  0  0  0  0  0  0  0  0  0
  -19.2755   42.3658  -21.5062 C   0  0  0  0  0  0  0  0  0  0  0  0
  -19.0850   41.0001  -21.6107 C   0  0  0  0  0  0  0  0  0  0  0  0
  -20.0365   40.5907  -22.5006 N   0  0  0  0  0  0  0  0  0  0  0  0
  -20.7491   41.6595  -22.8986 C   0  0  0  0  0  0  0  0  0  0  0  0
  -20.2947   42.7718  -22.2946 N   0  0  0  0  0  0  0  0  0  0  0  0
  -20.7406   44.1320  -22.4088 C   0  0  0  0  0  0  0  0  0  0  0  0
  -21.4758   44.3401  -23.5720 O   0  0  0  0  0  0  0  0  0  0  0  0
  -22.1731   45.5184  -23.4036 C   0  0  1  0  0  0  0  0  0  0  0  0
  -23.5168   45.3651  -24.0854 C   0  0  0  0  0  0  0  0  0  0  0  0
  -23.2376   45.1462  -25.4514 O   0  0  0  0  0  0  0  0  0  0  0  0
  -22.4193   45.6987  -21.9273 C   0  0  2  0  0  0  0  0  0  0  0  0
  -21.7388   46.8411  -21.5051 O   0  0  0  0  0  0  0  0  0  0  0  0
  -21.7551   44.4566  -21.3312 C   0  0  2  0  0  0  0  0  0  0  0  0
  -21.1345   44.8302  -20.1533 O   0  0  0  0  0  0  0  0  0  0  0  0
  -18.2518   35.5980  -22.5186 C   0  0  0  0  0  0  0  0  0  0  0  0
  -18.3209   34.2330  -22.3265 C   0  0  0  0  0  0  0  0  0  0  0  0
  1  2  2  0
  2  3  1  0
  2  4  1  0
  4  5  2  0
  5  6  1  0
  6  7  2  0
  7  8  1  0
  8  9  1  0
  9 10  1  0
 10 11  2  0
 11 12  1  0
 12 13  2  0
 13 14  1  0
 14 15  2  0
 15 16  1  0
 16 17  2  0
 17 18  1  0
 18 19  1  0
 19 20  1  0
 20 21  1  0
 21 22  1  6
 22 23  1  0
 21 24  1  0
 24 25  1  1
 24 26  1  0
 26 27  1  1
  7 28  1  0
 28 29  2  0
 29  4  1  0
 15 10  1  0
 26 19  1  0
 18 14  1  0
M  CHG  2   2   1   3  -1
M  END
$$$$
