
     RDKit          3D

 12 12  0  0  0  0  0  0  0  0999 V2000
  -19.7900   37.4548  -20.6619 O   0  0  0  0  0  0  0  0  0  0  0  0
  -19.1130   38.2496  -21.3167 C   0  0  0  0  0  0  0  0  0  0  0  0
  -19.1502   38.1726  -22.7047 O   0  0  0  0  0  0  0  0  0  0  0  0
  -18.2673   39.2753  -20.7084 C   0  0  0  0  0  0  0  0  0  0  0  0
  -18.4543   40.6701  -21.2332 C   0  0  0  0  0  0  0  0  0  0  0  0
  -18.2035   41.6879  -20.1567 C   0  0  0  0  0  0  0  0  0  0  0  0
  -17.3713   42.8491  -20.6530 C   0  0  0  0  0  0  0  0  0  0  0  0
  -17.4247   44.0288  -19.7381 C   0  0  0  0  0  0  0  0  0  0  0  0
  -16.3354   44.0886  -18.7340 C   0  0  0  0  0  0  0  0  0  0  0  0
  -15.0134   44.3418  -19.3915 C   0  0  0  0  0  0  0  0  0  0  0  0
  -15.2131   45.9036  -20.3456 S   0  0  0  0  0  0  0  0  0  0  0  0
  -17.3288   45.6012  -20.6885 S   0  0  0  0  0  0  0  0  0  0  0  0
  1  2  2  0
  2  3  1  0
  2  4  1  0
  4  5  1  0
  5  6  1  0
  6  7  1  0
  7  8  1  0
  8  9  1  0
  9 10  1  0
 10 11  1  0
 11 12  1  0
 12  8  1  0
M  END
$$$$
