
     RDKit          3D

 17 18  0  0  0  0  0  0  0  0999 V2000
  -29.7522   15.6026  -20.6350 C   0  0  0  0  0  0  0  0  0  0  0  0
  -29.0660   14.7904  -21.6817 C   0  0  0  0  0  0  0  0  0  0  0  0
  -29.9674   14.6820  -22.9356 C   0  0  0  0  0  0  0  0  0  0  0  0
  -28.7292   13.4306  -21.2686 C   0  0  0  0  0  0  0  0  0  0  0  0
  -27.6064   12.9663  -21.6915 O   0  0  0  0  0  0  0  0  0  0  0  0
  -29.4941   12.5351  -20.4440 C   0  0  0  0  0  0  0  0  0  0  0  0
  -28.8689   11.7560  -19.4928 C   0  0  0  0  0  0  0  0  0  0  0  0
  -29.5303   10.8783  -18.6597 C   0  0  0  0  0  0  0  0  0  0  0  0
  -30.9005   10.7911  -18.8045 C   0  0  0  0  0  0  0  0  0  0  0  0
  -31.5147   11.5468  -19.7283 N   0  0  0  0  0  0  0  0  0  0  0  0
  -30.8605   12.4016  -20.5379 C   0  0  0  0  0  0  0  0  0  0  0  0
  -27.8754   15.5495  -22.1738 C   0  0  0  0  0  0  0  0  0  0  0  0
  -27.9114   16.1877  -23.4110 C   0  0  0  0  0  0  0  0  0  0  0  0
  -26.8146   16.8809  -23.8211 C   0  0  0  0  0  0  0  0  0  0  0  0
  -25.6775   16.9662  -23.0477 C   0  0  0  0  0  0  0  0  0  0  0  0
  -25.6748   16.3400  -21.8602 N   0  0  0  0  0  0  0  0  0  0  0  0
  -26.7355   15.6414  -21.4101 C   0  0  0  0  0  0  0  0  0  0  0  0
  1  2  1  0
  2  3  1  0
  2  4  1  0
  4  5  2  0
  4  6  1  0
  6  7  2  0
  7  8  1  0
  8  9  2  0
  9 10  1  0
 10 11  2  0
  2 12  1  0
 12 13  2  0
 13 14  1  0
 14 15  2  0
 15 16  1  0
 16 17  2  0
 11  6  1  0
 17 12  1  0
M  END
$$$$
