
     RDKit          3D

 39 43  0  0  0  0  0  0  0  0999 V2000
  -29.0321   37.2026  -26.6615 C   0  0  0  0  0  0  0  0  0  0  0  0
  -27.8066   36.3707  -26.7654 C   0  0  0  0  0  0  0  0  0  0  0  0
  -27.0811   36.0696  -25.6568 C   0  0  0  0  0  0  0  0  0  0  0  0
  -25.9313   35.2871  -25.7551 C   0  0  0  0  0  0  0  0  0  0  0  0
  -25.4899   34.7921  -26.9754 C   0  0  0  0  0  0  0  0  0  0  0  0
  -24.3331   33.9925  -27.1262 N   0  0  0  0  0  0  0  0  0  0  0  0
  -24.3980   32.6852  -27.4384 N   0  0  0  0  0  0  0  0  0  0  0  0
  -23.1655   32.1762  -27.5207 C   0  0  0  0  0  0  0  0  0  0  0  0
  -22.8337   30.7644  -27.8449 C   0  0  0  0  0  0  0  0  0  0  0  0
  -21.6115   30.7406  -28.7460 C   0  0  0  0  0  0  0  0  0  0  0  0
  -22.5831   29.9517  -26.5924 C   0  0  0  0  0  0  0  0  0  0  0  0
  -23.9643   30.1119  -28.6351 C   0  0  0  0  0  0  0  0  0  0  0  0
  -22.3057   33.2330  -27.2431 C   0  0  0  0  0  0  0  0  0  0  0  0
  -23.0525   34.3668  -26.9973 C   0  0  0  0  0  0  0  0  0  0  0  0
  -22.6420   35.6874  -26.6732 N   0  0  0  0  0  0  0  0  0  0  0  0
  -21.9319   35.8970  -25.4579 C   0  0  0  0  0  0  0  0  0  0  0  0
  -20.7281   35.5439  -25.4020 O   0  0  0  0  0  0  0  0  0  0  0  0
  -22.4947   36.4781  -24.3087 N   0  0  0  0  0  0  0  0  0  0  0  0
  -21.8801   37.5559  -23.5970 C   0  0  0  0  0  0  0  0  0  0  0  0
  -22.2097   38.8346  -24.0259 C   0  0  0  0  0  0  0  0  0  0  0  0
  -21.6941   39.9732  -23.4366 C   0  0  0  0  0  0  0  0  0  0  0  0
  -20.8214   39.8039  -22.3847 C   0  0  0  0  0  0  0  0  0  0  0  0
  -20.2918   40.9329  -21.7795 O   0  0  0  0  0  0  0  0  0  0  0  0
  -18.9126   41.0451  -21.5339 C   0  0  0  0  0  0  0  0  0  0  0  0
  -18.3928   42.4258  -21.8379 C   0  0  0  0  0  0  0  0  0  0  0  0
  -17.7304   43.0602  -20.7303 N   0  0  0  0  0  0  0  0  0  0  0  0
  -16.4052   42.4642  -20.6215 C   0  0  0  0  0  0  0  0  0  0  0  0
  -15.6238   43.0888  -19.4831 C   0  0  0  0  0  0  0  0  0  0  0  0
  -15.9099   44.4515  -19.4019 O   0  0  0  0  0  0  0  0  0  0  0  0
  -16.2441   44.9446  -20.6707 C   0  0  0  0  0  0  0  0  0  0  0  0
  -17.6578   44.4872  -20.9643 C   0  0  0  0  0  0  0  0  0  0  0  0
  -20.4798   38.5317  -21.9415 C   0  0  0  0  0  0  0  0  0  0  0  0
  -19.6066   38.3933  -20.8897 C   0  0  0  0  0  0  0  0  0  0  0  0
  -19.2638   37.1240  -20.4453 C   0  0  0  0  0  0  0  0  0  0  0  0
  -19.8093   36.0366  -21.0718 C   0  0  0  0  0  0  0  0  0  0  0  0
  -20.6930   36.1489  -22.1356 C   0  0  0  0  0  0  0  0  0  0  0  0
  -21.0204   37.3987  -22.5609 C   0  0  0  0  0  0  0  0  0  0  0  0
  -26.2602   35.1235  -28.0820 C   0  0  0  0  0  0  0  0  0  0  0  0
  -27.3960   35.8949  -27.9931 C   0  0  0  0  0  0  0  0  0  0  0  0
  1  2  1  0
  2  3  2  0
  3  4  1  0
  4  5  2  0
  5  6  1  0
  6  7  1  0
  7  8  2  0
  8  9  1  0
  9 10  1  0
  9 11  1  0
  9 12  1  0
  8 13  1  0
 13 14  2  0
 14 15  1  0
 15 16  1  0
 16 17  2  0
 16 18  1  0
 18 19  1  0
 19 20  2  0
 20 21  1  0
 21 22  2  0
 22 23  1  0
 23 24  1  0
 24 25  1  0
 25 26  1  0
 26 27  1  0
 27 28  1  0
 28 29  1  0
 29 30  1  0
 30 31  1  0
 22 32  1  0
 32 33  2  0
 33 34  1  0
 34 35  2  0
 35 36  1  0
 36 37  2  0
  5 38  1  0
 38 39  2  0
 39  2  1  0
 14  6  1  0
 37 19  1  0
 31 26  1  0
 37 32  1  0
M  END
$$$$
