
     RDKit          3D

 33 35  0  0  0  0  0  0  0  0999 V2000
  -23.4405   23.4412  -39.5980 C   0  0  0  0  0  0  0  0  0  0  0  0
  -22.4822   23.9998  -40.4694 O   0  0  0  0  0  0  0  0  0  0  0  0
  -21.3505   23.2633  -40.7799 C   0  0  0  0  0  0  0  0  0  0  0  0
  -21.0359   22.1293  -40.0768 C   0  0  0  0  0  0  0  0  0  0  0  0
  -19.9035   21.3935  -40.3868 C   0  0  0  0  0  0  0  0  0  0  0  0
  -19.6404   20.1924  -39.5858 C   0  0  0  0  0  0  0  0  0  0  0  0
  -19.9854   20.1495  -38.3663 O   0  0  0  0  0  0  0  0  0  0  0  0
  -19.0059   19.0289  -40.0834 N   0  0  0  0  0  0  0  0  0  0  0  0
  -17.6478   18.7315  -39.8041 C   0  0  0  0  0  0  0  0  0  0  0  0
  -17.0113   19.3680  -38.4177 S   0  0  0  0  0  0  0  0  0  0  0  0
  -16.8209   17.9431  -40.6472 N   0  0  0  0  0  0  0  0  0  0  0  0
  -15.5037   17.6070  -40.1643 C   0  0  0  0  0  0  0  0  0  0  0  0
  -15.3357   17.3177  -38.8289 C   0  0  0  0  0  0  0  0  0  0  0  0
  -14.1255   16.9888  -38.2773 C   0  0  0  0  0  0  0  0  0  0  0  0
  -13.0216   16.9533  -39.1333 C   0  0  0  0  0  0  0  0  0  0  0  0
  -13.1582   17.2381  -40.4724 C   0  0  0  0  0  0  0  0  0  0  0  0
  -11.9922   17.1855  -41.2755 N   0  0  0  0  0  0  0  0  0  0  0  0
  -10.9120   18.0818  -41.1379 C   0  0  0  0  0  0  0  0  0  0  0  0
  -10.7388   18.5625  -39.9723 O   0  0  0  0  0  0  0  0  0  0  0  0
  -10.0042   18.4877  -42.1974 C   0  0  0  0  0  0  0  0  0  0  0  0
  -10.4420   18.9507  -43.4191 C   0  0  0  0  0  0  0  0  0  0  0  0
   -9.5522   19.3257  -44.4105 C   0  0  0  0  0  0  0  0  0  0  0  0
   -8.1859   19.2573  -44.2317 C   0  0  0  0  0  0  0  0  0  0  0  0
   -7.7451   18.7941  -43.0088 C   0  0  0  0  0  0  0  0  0  0  0  0
   -8.6361   18.4199  -42.0196 C   0  0  0  0  0  0  0  0  0  0  0  0
  -14.3908   17.5606  -40.9746 C   0  0  0  0  0  0  0  0  0  0  0  0
  -19.1063   21.8231  -41.4087 C   0  0  0  0  0  0  0  0  0  0  0  0
  -19.4155   22.9690  -42.1259 C   0  0  0  0  0  0  0  0  0  0  0  0
  -18.6528   23.4546  -43.1672 O   0  0  0  0  0  0  0  0  0  0  0  0
  -17.3090   23.1951  -43.3842 C   0  0  0  0  0  0  0  0  0  0  0  0
  -20.5655   23.6938  -41.7922 C   0  0  0  0  0  0  0  0  0  0  0  0
  -20.8850   24.8419  -42.5026 O   0  0  0  0  0  0  0  0  0  0  0  0
  -21.9108   24.7045  -43.4783 C   0  0  0  0  0  0  0  0  0  0  0  0
  1  2  1  0
  2  3  1  0
  3  4  2  0
  4  5  1  0
  5  6  1  0
  6  7  2  0
  6  8  1  0
  8  9  1  0
  9 10  2  0
  9 11  1  0
 11 12  1  0
 12 13  2  0
 13 14  1  0
 14 15  2  0
 15 16  1  0
 16 17  1  0
 17 18  1  0
 18 19  2  0
 18 20  1  0
 20 21  2  0
 21 22  1  0
 22 23  2  0
 23 24  1  0
 24 25  2  0
 16 26  2  0
  5 27  2  0
 27 28  1  0
 28 29  1  0
 29 30  1  0
 28 31  2  0
 31 32  1  0
 32 33  1  0
 31  3  1  0
 26 12  1  0
 25 20  1  0
M  END
$$$$
