
     RDKit          3D

 45 49  0  0  0  0  0  0  0  0999 V2000
  -25.7540   21.0480  -33.0480 C   0  0  0  0  0  0  0  0  0  0  0  0
  -24.6814   20.4262  -33.8428 C   0  0  0  0  0  0  0  0  0  0  0  0
  -24.9286   19.9499  -35.1100 C   0  0  0  0  0  0  0  0  0  0  0  0
  -23.9112   19.3561  -35.8750 C   0  0  0  0  0  0  0  0  0  0  0  0
  -24.0889   18.7280  -37.1890 C   0  0  0  0  0  0  0  0  0  0  0  0
  -22.6528   19.2725  -35.3068 C   0  0  0  0  0  0  0  0  0  0  0  0
  -22.3809   19.7449  -34.0185 C   0  0  0  0  0  0  0  0  0  0  0  0
  -23.4245   20.3194  -33.3160 C   0  0  0  0  0  0  0  0  0  0  0  0
  -21.1263   19.6738  -33.2465 C   0  0  1  0  0  0  0  0  0  0  0  0
  -21.2170   19.0373  -31.9680 N   0  0  0  0  0  0  0  0  0  0  0  0
  -20.8502   17.6302  -31.8668 C   0  0  0  0  0  0  0  0  0  0  0  0
  -19.4197   17.4678  -31.5389 C   0  0  0  0  0  0  0  0  0  0  0  0
  -18.7906   16.2495  -31.5937 C   0  0  0  0  0  0  0  0  0  0  0  0
  -17.4305   16.1955  -31.2706 C   0  0  0  0  0  0  0  0  0  0  0  0
  -16.7412   14.8796  -31.3318 C   0  0  0  0  0  0  0  0  0  0  0  0
  -15.8026   14.8982  -32.3313 F   0  0  0  0  0  0  0  0  0  0  0  0
  -16.1061   14.6578  -30.1267 F   0  0  0  0  0  0  0  0  0  0  0  0
  -17.6977   13.9018  -31.5794 F   0  0  0  0  0  0  0  0  0  0  0  0
  -16.7699   17.3516  -30.9116 C   0  0  0  0  0  0  0  0  0  0  0  0
  -17.3911   18.5830  -30.8521 C   0  0  0  0  0  0  0  0  0  0  0  0
  -16.6513   19.8143  -30.4594 C   0  0  0  0  0  0  0  0  0  0  0  0
  -15.3062   19.5140  -30.4668 F   0  0  0  0  0  0  0  0  0  0  0  0
  -17.0941   20.2382  -29.2438 F   0  0  0  0  0  0  0  0  0  0  0  0
  -16.8665   20.7447  -31.4658 F   0  0  0  0  0  0  0  0  0  0  0  0
  -18.7287   18.6066  -31.1747 C   0  0  0  0  0  0  0  0  0  0  0  0
  -21.6575   19.6747  -30.8035 C   0  0  0  0  0  0  0  0  0  0  0  0
  -21.6288   19.1622  -29.5519 N   0  0  0  0  0  0  0  0  0  0  0  0
  -22.1074   20.0380  -28.7396 N   0  0  0  0  0  0  0  0  0  0  0  0
  -22.4576   21.1198  -29.3907 N   0  0  0  0  0  0  0  0  0  0  0  0
  -23.0293   22.2816  -28.7419 C   0  0  0  0  0  0  0  0  0  0  0  0
  -22.1828   20.8955  -30.6418 N   0  0  0  0  0  0  0  0  0  0  0  0
  -19.9857   19.1338  -34.0785 C   0  0  0  0  0  0  0  0  0  0  0  0
  -20.1825   17.7823  -34.6532 C   0  0  0  0  0  0  0  0  0  0  0  0
  -20.7686   17.6800  -36.0090 C   0  0  0  0  0  0  0  0  0  0  0  0
  -21.7709   18.7352  -36.2869 N   0  0  0  0  0  0  0  0  0  0  0  0
  -21.9475   19.2799  -37.5950 C   0  0  0  0  0  0  0  0  0  0  0  0
  -21.0306   18.8723  -38.7101 C   0  0  1  0  0  0  0  0  0  0  0  0
  -21.6794   18.9212  -40.0897 C   0  0  0  0  0  0  0  0  0  0  0  0
  -21.9912   20.2922  -40.5682 C   0  0  0  0  0  0  0  0  0  0  0  0
  -20.9523   21.3247  -40.1925 C   0  0  2  0  0  0  0  0  0  0  0  0
  -20.8584   22.3717  -41.2084 C   0  0  0  0  0  0  0  0  0  0  0  0
  -19.7471   22.7437  -41.6413 O   0  0  0  0  0  0  0  0  0  0  0  0
  -21.9994   22.9573  -41.6955 O   0  0  0  0  0  0  0  0  0  0  0  0
  -19.6683   20.5564  -39.9715 C   0  0  0  0  0  0  0  0  0  0  0  0
  -19.8645   19.8687  -38.6381 C   0  0  0  0  0  0  0  0  0  0  0  0
  1  2  1  0
  2  3  2  0
  3  4  1  0
  4  5  1  0
  4  6  2  0
  6  7  1  0
  7  8  2  0
  7  9  1  0
  9 10  1  1
 10 11  1  0
 11 12  1  0
 12 13  2  0
 13 14  1  0
 14 15  1  0
 15 16  1  0
 15 17  1  0
 15 18  1  0
 14 19  2  0
 19 20  1  0
 20 21  1  0
 21 22  1  0
 21 23  1  0
 21 24  1  0
 20 25  2  0
 10 26  1  0
 26 27  1  0
 27 28  2  0
 28 29  1  0
 29 30  1  0
 29 31  1  0
  9 32  1  0
 32 33  1  0
 33 34  1  0
 34 35  1  0
 35 36  1  0
 37 36  1  1
 37 38  1  0
 38 39  1  0
 39 40  1  0
 40 41  1  6
 41 42  2  0
 41 43  1  0
 40 44  1  0
 44 45  1  0
  8  2  1  0
 25 12  1  0
 31 26  2  0
 45 37  1  0
 35  6  1  0
M  END
$$$$
