
     RDKit          3D

 19 20  0  0  0  0  0  0  0  0999 V2000
  -31.0100   15.7616  -23.3531 O   0  0  0  0  0  0  0  0  0  0  0  0
  -31.3953   14.7008  -22.8026 C   0  0  0  0  0  0  0  0  0  0  0  0
  -32.4925   14.0517  -23.3666 O   0  0  0  0  0  0  0  0  0  0  0  0
  -30.7226   14.1622  -21.6151 C   0  0  0  0  0  0  0  0  0  0  0  0
  -29.7684   14.7582  -20.8330 C   0  0  0  0  0  0  0  0  0  0  0  0
  -29.4648   13.8409  -19.8497 C   0  0  0  0  0  0  0  0  0  0  0  0
  -30.2432   12.7234  -20.0689 C   0  0  0  0  0  0  0  0  0  0  0  0
  -30.2532   11.5026  -19.2712 C   0  0  0  0  0  0  0  0  0  0  0  0
  -29.1003   11.1446  -18.5772 C   0  0  0  0  0  0  0  0  0  0  0  0
  -29.0665   10.0080  -17.8174 C   0  0  0  0  0  0  0  0  0  0  0  0
  -30.1776    9.2027  -17.7308 C   0  0  0  0  0  0  0  0  0  0  0  0
  -31.3140    9.5661  -18.4219 C   0  0  0  0  0  0  0  0  0  0  0  0
  -31.3714   10.6932  -19.1848 C   0  0  0  0  0  0  0  0  0  0  0  0
  -32.4885   11.0873  -19.8883 O   0  0  0  0  0  0  0  0  0  0  0  0
  -33.7908   11.1271  -19.4054 C   0  0  0  0  0  0  0  0  0  0  0  0
  -34.0249   12.4455  -18.9850 F   0  0  0  0  0  0  0  0  0  0  0  0
  -33.9930   10.3351  -18.2924 F   0  0  0  0  0  0  0  0  0  0  0  0
  -34.7450   10.8877  -20.3893 F   0  0  0  0  0  0  0  0  0  0  0  0
  -30.9619   12.9792  -21.1255 O   0  0  0  0  0  0  0  0  0  0  0  0
  1  2  2  0
  2  3  1  0
  2  4  1  0
  4  5  2  0
  5  6  1  0
  6  7  2  0
  7  8  1  0
  8  9  2  0
  9 10  1  0
 10 11  2  0
 11 12  1  0
 12 13  2  0
 13 14  1  0
 14 15  1  0
 15 16  1  0
 15 17  1  0
 15 18  1  0
  7 19  1  0
 19  4  1  0
 13  8  1  0
M  END
$$$$
