
     RDKit          3D

 26 28  0  0  0  0  0  0  0  0999 V2000
  -14.0086   44.0099  -16.6273 C   0  0  0  0  0  0  0  0  0  0  0  0
  -14.8450   44.5293  -17.7755 C   0  0  0  0  0  0  0  0  0  0  0  0
  -15.4908   43.3330  -18.4420 C   0  0  0  0  0  0  0  0  0  0  0  0
  -15.4971   43.5721  -19.8297 O   0  0  0  0  0  0  0  0  0  0  0  0
  -16.6677   43.5122  -20.5958 C   0  0  0  0  0  0  0  0  0  0  0  0
  -17.3238   44.6205  -21.0438 C   0  0  0  0  0  0  0  0  0  0  0  0
  -18.4825   44.4301  -21.7999 C   0  0  0  0  0  0  0  0  0  0  0  0
  -18.9690   43.2090  -22.0987 N   0  0  0  0  0  0  0  0  0  0  0  0
  -20.0528   42.8533  -22.8046 C   0  0  0  0  0  0  0  0  0  0  0  0
  -21.0465   43.7016  -23.4703 C   0  0  0  0  0  0  0  0  0  0  0  0
  -22.1638   43.1230  -24.2227 C   0  0  0  0  0  0  0  0  0  0  0  0
  -20.9430   44.9499  -23.3974 O   0  0  0  0  0  0  0  0  0  0  0  0
  -20.0703   41.4539  -22.7941 C   0  0  0  0  0  0  0  0  0  0  0  0
  -19.0009   40.9624  -22.0842 C   0  0  0  0  0  0  0  0  0  0  0  0
  -18.6261   39.5844  -21.8140 C   0  0  0  0  0  0  0  0  0  0  0  0
  -17.3854   39.0539  -22.0860 C   0  0  0  0  0  0  0  0  0  0  0  0
  -17.0628   37.7399  -21.8126 C   0  0  0  0  0  0  0  0  0  0  0  0
  -18.0095   36.9056  -21.2424 C   0  0  0  0  0  0  0  0  0  0  0  0
  -19.2402   37.4177  -20.9685 C   0  0  0  0  0  0  0  0  0  0  0  0
  -19.5553   38.7450  -21.2485 C   0  0  0  0  0  0  0  0  0  0  0  0
  -21.1480   39.3662  -20.8869 S   0  0  0  0  0  6  0  0  0  0  0  0
  -21.0019   40.6218  -19.6081 C   0  0  0  0  0  0  0  0  0  0  0  0
  -22.0102   38.2594  -20.2961 O   0  0  0  0  0  0  0  0  0  0  0  0
  -21.8608   39.9091  -22.0662 O   0  0  0  0  0  0  0  0  0  0  0  0
  -18.3236   42.0879  -21.6574 C   0  0  0  0  0  0  0  0  0  0  0  0
  -17.1803   42.2809  -20.9115 C   0  0  0  0  0  0  0  0  0  0  0  0
  1  2  1  0
  2  3  1  0
  3  4  1  0
  4  5  1  0
  5  6  1  0
  6  7  2  0
  7  8  1  0
  8  9  1  0
  9 10  1  0
 10 11  1  0
 10 12  2  0
  9 13  2  0
 13 14  1  0
 14 15  1  0
 15 16  2  0
 16 17  1  0
 17 18  2  0
 18 19  1  0
 19 20  2  0
 20 21  1  0
 21 22  1  0
 21 23  2  0
 21 24  2  0
 14 25  2  0
 25 26  1  0
 26  5  2  0
 25  8  1  0
 20 15  1  0
M  END
$$$$
