
     RDKit          3D

 29 31  0  0  0  0  0  0  0  0999 V2000
  -15.7686   45.4087  -18.7028 C   0  0  0  0  0  0  0  0  0  0  0  0
  -15.0458   44.5257  -19.6643 C   0  0  0  0  0  0  0  0  0  0  0  0
  -14.3373   45.3054  -20.7527 C   0  0  0  0  0  0  0  0  0  0  0  0
  -14.0330   43.8633  -18.9402 O   0  0  0  0  0  0  0  0  0  0  0  0
  -15.9455   43.5148  -20.2712 C   0  0  0  0  0  0  0  0  0  0  0  0
  -17.2917   43.3081  -20.0630 C   0  0  0  0  0  0  0  0  0  0  0  0
  -17.7011   42.2963  -20.8107 O   0  0  0  0  0  0  0  0  0  0  0  0
  -16.7068   41.8073  -21.5128 C   0  0  0  0  0  0  0  0  0  0  0  0
  -16.7356   40.4742  -22.6439 S   0  0  0  0  0  6  0  0  0  0  0  0
  -15.3735   40.2679  -23.2230 O   0  0  0  0  0  0  0  0  0  0  0  0
  -17.6409   40.8772  -23.7735 O   0  0  0  0  0  0  0  0  0  0  0  0
  -17.2280   39.0194  -21.9005 N   0  0  0  0  0  2  0  0  0  0  0  0
  -18.4675   38.7799  -21.2904 C   0  0  0  0  0  0  0  0  0  0  0  0
  -18.5515   37.7866  -20.4958 O   0  0  0  0  0  0  0  0  0  0  0  0
  -19.6305   39.5450  -21.4813 N   0  0  0  0  0  0  0  0  0  0  0  0
  -20.8868   39.2751  -20.8425 C   0  0  0  0  0  0  0  0  0  0  0  0
  -21.7605   38.4388  -21.4911 C   0  0  0  0  0  0  0  0  0  0  0  0
  -22.9615   38.1559  -20.9217 C   0  0  0  0  0  0  0  0  0  0  0  0
  -23.2990   38.7171  -19.6823 C   0  0  0  0  0  0  0  0  0  0  0  0
  -22.4157   39.5559  -19.0383 C   0  0  0  0  0  0  0  0  0  0  0  0
  -21.2023   39.8369  -19.6210 C   0  0  0  0  0  0  0  0  0  0  0  0
  -20.4309   40.7459  -18.7539 C   0  0  0  0  0  0  0  0  0  0  0  0
  -21.4799   41.3654  -17.8706 C   0  0  0  0  0  0  0  0  0  0  0  0
  -22.5393   40.2780  -17.7214 C   0  0  0  0  0  0  0  0  0  0  0  0
  -23.7046   37.2360  -21.8176 C   0  0  0  0  0  0  0  0  0  0  0  0
  -23.0907   37.5202  -23.1645 C   0  0  0  0  0  0  0  0  0  0  0  0
  -21.6224   37.7298  -22.8132 C   0  0  0  0  0  0  0  0  0  0  0  0
  -15.5726   42.5604  -21.1934 C   0  0  0  0  0  0  0  0  0  0  0  0
  -19.2378   41.0850  -20.5284 Na  0  0  0  0  0 15  0  0  0  0  0  0
  1  2  1  0
  2  3  1  0
  2  4  1  0
  2  5  1  0
  5  6  2  0
  6  7  1  0
  7  8  1  0
  8  9  1  0
  9 10  2  0
  9 11  2  0
  9 12  1  0
 12 13  1  0
 13 14  2  0
 13 15  1  0
 15 16  1  0
 16 17  2  0
 17 18  1  0
 18 19  2  0
 19 20  1  0
 20 21  2  0
 21 22  1  0
 22 23  1  0
 23 24  1  0
 18 25  1  0
 25 26  1  0
 26 27  1  0
  8 28  2  0
 28  5  1  0
 21 16  1  0
 27 17  1  0
 24 20  1  0
M  CHG  2  12  -1  29   1
M  END
$$$$
