
     RDKit          3D

 19 21  0  0  0  0  0  0  0  0999 V2000
  -21.4458   42.0947  -24.2371 C   0  0  0  0  0  0  0  0  0  0  0  0
  -20.3720   42.3693  -23.2475 C   0  0  0  0  0  0  0  0  0  0  0  0
  -19.5447   41.3475  -22.8043 C   0  0  0  0  0  0  0  0  0  0  0  0
  -18.5516   41.5720  -21.8967 C   0  0  0  0  0  0  0  0  0  0  0  0
  -17.7132   40.4238  -21.4767 C   0  0  0  0  0  0  0  0  0  0  0  0
  -18.3736   42.8543  -21.4125 C   0  0  0  0  0  0  0  0  0  0  0  0
  -17.3322   43.0744  -20.4647 N   0  0  0  0  0  0  0  0  0  0  0  0
  -16.0075   43.4235  -20.8250 C   0  0  0  0  0  0  0  0  0  0  0  0
  -15.7547   43.5559  -22.0491 O   0  0  0  0  0  0  0  0  0  0  0  0
  -14.9464   43.6308  -19.8441 C   0  0  0  0  0  0  0  0  0  0  0  0
  -15.3790   44.6366  -18.7851 C   0  0  0  0  0  0  0  0  0  0  0  0
  -14.1890   45.5643  -18.7235 C   0  0  0  0  0  0  0  0  0  0  0  0
  -13.0146   44.7658  -18.2342 C   0  0  0  0  0  0  0  0  0  0  0  0
  -12.5674   43.8982  -19.4221 C   0  0  0  0  0  0  0  0  0  0  0  0
  -13.6610   44.1550  -20.4253 C   0  0  0  0  0  0  0  0  0  0  0  0
  -13.8608   45.6667  -20.2215 C   0  0  0  0  0  0  0  0  0  0  0  0
  -19.1979   43.8692  -21.8548 C   0  0  0  0  0  0  0  0  0  0  0  0
  -18.9575   45.2456  -21.2929 C   0  0  0  0  0  0  0  0  0  0  0  0
  -20.1972   43.6427  -22.7684 C   0  0  0  0  0  0  0  0  0  0  0  0
  1  2  1  0
  2  3  2  0
  3  4  1  0
  4  5  1  0
  4  6  2  0
  6  7  1  0
  7  8  1  0
  8  9  2  0
  8 10  1  0
 10 11  1  0
 11 12  1  0
 12 13  1  0
 13 14  1  0
 14 15  1  0
 15 16  1  0
  6 17  1  0
 17 18  1  0
 17 19  2  0
 19  2  1  0
 15 10  1  0
 16 12  1  0
M  END
$$$$
