
     RDKit          3D

 21 22  0  0  0  0  0  0  0  0999 V2000
  -18.6763   48.8613  -20.5719 C   0  0  0  0  0  0  0  0  0  0  0  0
  -18.2336   47.7202  -20.0839 C   0  0  0  0  0  0  0  0  0  0  0  0
  -17.1585   46.9425  -20.7254 C   0  0  0  0  0  0  0  0  0  0  0  0
  -17.1916   45.5345  -20.3095 N   0  0  0  0  0  0  0  0  0  0  0  0
  -16.5736   44.9962  -19.2406 C   0  0  0  0  0  0  0  0  0  0  0  0
  -15.7293   45.7419  -18.2682 C   0  0  0  0  0  0  0  0  0  0  0  0
  -16.8381   43.6400  -19.1753 C   0  0  0  0  0  0  0  0  0  0  0  0
  -17.6453   43.3380  -20.2403 C   0  0  0  0  0  0  0  0  0  0  0  0
  -18.1629   42.0002  -20.5463 C   0  0  0  0  0  0  0  0  0  0  0  0
  -18.7600   41.8974  -21.6469 N   0  0  0  0  0  0  0  0  0  0  0  0
  -19.3526   40.8161  -22.2308 N   0  0  0  0  0  0  0  0  0  0  0  0
  -19.3469   39.7042  -21.6427 C   0  0  0  0  0  0  0  0  0  0  0  0
  -19.9726   38.5972  -22.2774 N   0  0  0  0  0  0  0  0  0  0  0  0
  -20.7440   38.8188  -23.4851 C   0  0  0  0  0  0  0  0  0  0  0  0
  -20.6385   40.2722  -23.9149 C   0  0  0  0  0  0  0  0  0  0  0  0
  -20.2659   37.8803  -24.5849 C   0  0  0  0  0  0  0  0  0  0  0  0
  -22.2187   38.5675  -23.1977 C   0  0  0  0  0  0  0  0  0  0  0  0
  -18.6054   39.4173  -20.0612 S   0  0  0  0  0  0  0  0  0  0  0  0
  -17.9044   40.9794  -19.5168 C   0  0  0  0  0  0  0  0  0  0  0  0
  -17.8430   44.5214  -20.9153 C   0  0  0  0  0  0  0  0  0  0  0  0
  -18.6568   44.6644  -22.1365 C   0  0  0  0  0  0  0  0  0  0  0  0
  1  2  2  0
  2  3  1  0
  3  4  1  0
  4  5  1  0
  5  6  1  0
  5  7  2  0
  7  8  1  0
  8  9  1  0
  9 10  2  0
 10 11  1  0
 11 12  2  0
 12 13  1  0
 13 14  1  0
 14 15  1  0
 14 16  1  0
 14 17  1  0
 12 18  1  0
 18 19  1  0
  8 20  2  0
 20 21  1  0
 20  4  1  0
 19  9  1  0
M  END
$$$$
