
     RDKit          3D

 36 37  0  0  0  0  0  0  0  0999 V2000
   -8.7602   40.5074  -14.3122 C   0  0  0  0  0  0  0  0  0  0  0  0
   -9.1787   41.1315  -12.9855 C   0  0  0  0  0  0  0  0  0  0  0  0
   -9.3513   42.6134  -13.2182 C   0  0  0  0  0  0  0  0  0  0  0  0
  -10.3943   42.8050  -14.2442 C   0  0  0  0  0  0  0  0  0  0  0  0
  -10.0563   42.8594  -15.5699 C   0  0  0  0  0  0  0  0  0  0  0  0
  -11.0627   43.0404  -16.5043 C   0  0  0  0  0  0  0  0  0  0  0  0
  -12.3664   43.1610  -16.0938 C   0  0  0  0  0  0  0  0  0  0  0  0
  -13.4017   43.3503  -17.0900 C   0  0  0  0  0  0  0  0  0  0  0  0
  -14.6537   42.8417  -16.8285 C   0  0  0  0  0  0  0  0  0  0  0  0
  -15.6430   43.0195  -17.7729 C   0  0  0  0  0  0  0  0  0  0  0  0
  -15.3967   43.6842  -18.9456 C   0  0  0  0  0  0  0  0  0  0  0  0
  -16.4553   43.8569  -19.9471 N   0  0  0  0  0  0  0  0  0  0  0  0
  -17.2464   45.0348  -19.7604 C   0  0  0  0  0  0  0  0  0  0  0  0
  -16.5709   46.1982  -20.4333 C   0  0  1  0  0  0  0  0  0  0  0  0
  -16.4121   45.9210  -21.8299 N   0  0  0  0  0  0  0  0  0  0  0  0
  -17.3543   47.4845  -20.2932 C   0  0  1  0  0  0  0  0  0  0  0  0
  -18.7195   47.4252  -20.8808 C   0  0  0  0  0  0  0  0  0  0  0  0
  -17.3871   47.9795  -18.8647 C   0  0  0  0  0  0  0  0  0  0  0  0
  -18.1923   49.2628  -18.8566 C   0  0  0  0  0  0  0  0  0  0  0  0
  -16.4928   42.8822  -20.9315 C   0  0  0  0  0  0  0  0  0  0  0  0
  -15.4965   42.0247  -20.9484 O   0  0  0  0  0  0  0  0  0  0  0  0
  -17.4754   42.6347  -21.9779 C   0  0  2  0  0  0  0  0  0  0  0  0
  -18.5907   43.4484  -22.4194 C   0  0  0  0  0  0  0  0  0  0  0  0
  -18.9038   42.4122  -21.4175 C   0  0  1  0  0  0  0  0  0  0  0  0
  -19.5514   41.1547  -21.8564 C   0  0  0  0  0  0  0  0  0  0  0  0
  -20.2700   40.3798  -20.9762 C   0  0  0  0  0  0  0  0  0  0  0  0
  -20.8633   39.2166  -21.4059 C   0  0  0  0  0  0  0  0  0  0  0  0
  -20.7257   38.8366  -22.7427 C   0  0  0  0  0  0  0  0  0  0  0  0
  -20.0032   39.6308  -23.5940 C   0  0  0  0  0  0  0  0  0  0  0  0
  -19.4341   40.7678  -23.1344 N   0  0  0  0  0  0  0  0  0  0  0  0
  -14.1494   44.1892  -19.2034 C   0  0  0  0  0  0  0  0  0  0  0  0
  -13.1469   44.0171  -18.2619 C   0  0  0  0  0  0  0  0  0  0  0  0
  -12.7206   43.1086  -14.7699 C   0  0  0  0  0  0  0  0  0  0  0  0
  -11.7033   42.9271  -13.8460 C   0  0  0  0  0  0  0  0  0  0  0  0
  -15.0699   43.4309  -18.1560 Cl  0  0  0  0  0  0  0  0  0  0  0  0
  -15.0729   43.4324  -18.1598 Cl  0  0  0  0  0  0  0  0  0  0  0  0
  1  2  1  0
  2  3  1  0
  3  4  1  0
  4  5  2  0
  5  6  1  0
  6  7  2  0
  7  8  1  0
  8  9  2  0
  9 10  1  0
 10 11  2  0
 11 12  1  0
 12 13  1  0
 13 14  1  0
 14 15  1  6
 14 16  1  0
 16 17  1  1
 16 18  1  0
 18 19  1  0
 12 20  1  0
 20 21  2  0
 22 20  1  1
 22 23  1  0
 23 24  1  0
 24 25  1  6
 25 26  2  0
 26 27  1  0
 27 28  2  0
 28 29  1  0
 29 30  2  0
 11 31  1  0
 31 32  2  0
  7 33  1  0
 33 34  2  0
 34  4  1  0
 32  8  1  0
 24 22  1  0
 30 25  1  0
M  END
$$$$
