
     RDKit          3D

 24 27  0  0  0  0  0  0  0  0999 V2000
  -20.1797   32.8601  -22.6348 C   0  0  0  0  0  0  0  0  0  0  0  0
  -19.9292   34.3302  -22.5065 C   0  0  0  0  0  0  0  0  0  0  0  0
  -18.6589   34.8347  -22.4643 C   0  0  0  0  0  0  0  0  0  0  0  0
  -18.4015   36.1853  -22.3465 C   0  0  0  0  0  0  0  0  0  0  0  0
  -19.4405   37.0889  -22.2657 C   0  0  0  0  0  0  0  0  0  0  0  0
  -19.2567   38.4798  -22.1443 N   0  0  0  0  0  0  0  0  0  0  0  0
  -19.5707   39.3080  -23.1549 C   0  0  0  0  0  0  0  0  0  0  0  0
  -19.4310   40.6142  -23.1246 N   0  0  0  0  0  0  0  0  0  0  0  0
  -18.9372   41.2967  -22.0325 C   0  0  0  0  0  0  0  0  0  0  0  0
  -18.6111   40.4586  -20.9889 C   0  0  0  0  0  0  0  0  0  0  0  0
  -18.0154   41.5621  -19.7578 S   0  0  0  0  0  0  0  0  0  0  0  0
  -18.2297   43.0772  -20.6912 C   0  0  0  0  0  0  0  0  0  0  0  0
  -17.9726   44.3366  -20.3729 N   0  0  0  0  0  0  0  0  0  0  0  0
  -18.2056   45.3341  -21.2337 C   0  0  0  0  0  0  0  0  0  0  0  0
  -18.7233   44.9557  -22.4511 C   0  0  0  0  0  0  0  0  0  0  0  0
  -18.9973   43.6598  -22.8021 C   0  0  0  0  0  0  0  0  0  0  0  0
  -19.5400   43.4414  -24.0714 N   0  0  0  0  0  0  0  0  0  0  0  0
  -20.4077   44.3960  -24.7114 C   0  0  0  0  0  0  0  0  0  0  0  0
  -19.2503   42.2130  -24.8273 C   0  0  0  0  0  0  0  0  0  0  0  0
  -18.7400   42.6143  -21.8685 C   0  0  0  0  0  0  0  0  0  0  0  0
  -18.7667   39.0873  -21.0433 C   0  0  0  0  0  0  0  0  0  0  0  0
  -18.4456   38.4021  -20.0504 O   0  0  0  0  0  0  0  0  0  0  0  0
  -20.7262   36.5836  -22.3079 C   0  0  0  0  0  0  0  0  0  0  0  0
  -20.9760   35.2251  -22.4264 C   0  0  0  0  0  0  0  0  0  0  0  0
  1  2  1  0
  2  3  2  0
  3  4  1  0
  4  5  2  0
  5  6  1  0
  6  7  1  0
  7  8  2  0
  8  9  1  0
  9 10  2  0
 10 11  1  0
 11 12  1  0
 12 13  2  0
 13 14  1  0
 14 15  2  0
 15 16  1  0
 16 17  1  0
 17 18  1  0
 17 19  1  0
 16 20  2  0
 10 21  1  0
 21 22  2  0
  5 23  1  0
 23 24  2  0
 24  2  1  0
 21  6  1  0
 20  9  1  0
 20 12  1  0
M  END
$$$$
