
     RDKit          3D

 11 12  0  0  0  0  0  0  0  0999 V2000
  -17.2382   32.4985  -25.2696 O   0  0  0  0  0  0  0  0  0  0  0  0
  -18.5111   32.2051  -25.7481 C   0  0  0  0  0  0  0  0  0  0  0  0
  -18.9345   30.9147  -25.9881 C   0  0  0  0  0  0  0  0  0  0  0  0
  -20.2158   30.6904  -26.4649 C   0  0  0  0  0  0  0  0  0  0  0  0
  -21.0501   31.7683  -26.6924 C   0  0  0  0  0  0  0  0  0  0  0  0
  -20.6290   33.0598  -26.4531 C   0  0  0  0  0  0  0  0  0  0  0  0
  -21.4564   34.1637  -26.6764 C   0  0  0  0  0  0  0  0  0  0  0  0
  -21.0304   35.4473  -26.4359 C   0  0  0  0  0  0  0  0  0  0  0  0
  -19.7527   35.6275  -25.9634 C   0  0  0  0  0  0  0  0  0  0  0  0
  -18.9592   34.5399  -25.7512 N   0  0  0  0  0  0  0  0  0  0  0  0
  -19.3546   33.2902  -25.9784 C   0  0  0  0  0  0  0  0  0  0  0  0
  1  2  1  0
  2  3  2  0
  3  4  1  0
  4  5  2  0
  5  6  1  0
  6  7  2  0
  7  8  1  0
  8  9  2  0
  9 10  1  0
 10 11  2  0
 11  2  1  0
 11  6  1  0
M  END
$$$$
