
     RDKit          3D

 23 25  0  0  0  0  0  0  0  0999 V2000
  -21.9444   19.8373  -30.7505 C   0  0  0  0  0  0  0  0  0  0  0  0
  -21.5787   18.7692  -29.9366 O   0  0  0  0  0  0  0  0  0  0  0  0
  -20.5227   17.9130  -30.1297 C   0  0  0  0  0  0  0  0  0  0  0  0
  -20.7540   16.5614  -30.3195 C   0  0  0  0  0  0  0  0  0  0  0  0
  -19.7075   15.6923  -30.5131 C   0  0  0  0  0  0  0  0  0  0  0  0
  -19.9446   14.3133  -30.7078 O   0  0  0  0  0  0  0  0  0  0  0  0
  -21.2710   13.8379  -30.6233 C   0  0  0  0  0  0  0  0  0  0  0  0
  -18.4159   16.1731  -30.5173 C   0  0  0  0  0  0  0  0  0  0  0  0
  -17.2666   15.3342  -30.6917 C   0  0  0  0  0  0  0  0  0  0  0  0
  -16.5989   14.8128  -29.6950 C   0  0  0  0  0  0  0  0  0  0  0  0
  -16.9661   14.9481  -28.2529 C   0  0  0  0  0  0  0  0  0  0  0  0
  -17.9876   15.5800  -27.8461 O   0  0  0  0  0  0  0  0  0  0  0  0
  -16.0000   14.2684  -27.4825 N   0  0  0  0  0  0  0  0  0  0  0  0
  -15.0419   13.7134  -28.3782 C   0  0  0  0  0  0  0  0  0  0  0  0
  -13.9174   12.9777  -28.1090 C   0  0  0  0  0  0  0  0  0  0  0  0
  -13.1270   12.5532  -29.1302 C   0  0  0  0  0  0  0  0  0  0  0  0
  -13.4678   12.8712  -30.4481 C   0  0  0  0  0  0  0  0  0  0  0  0
  -14.5903   13.6068  -30.7360 C   0  0  0  0  0  0  0  0  0  0  0  0
  -15.3881   14.0334  -29.7102 C   0  0  0  0  0  0  0  0  0  0  0  0
  -18.2018   17.5266  -30.3266 C   0  0  0  0  0  0  0  0  0  0  0  0
  -16.8826   18.0324  -30.3277 O   0  0  0  0  0  0  0  0  0  0  0  0
  -16.6786   19.4219  -30.2550 C   0  0  0  0  0  0  0  0  0  0  0  0
  -19.2401   18.4120  -30.1317 C   0  0  0  0  0  0  0  0  0  0  0  0
  1  2  1  0
  2  3  1  0
  3  4  2  0
  4  5  1  0
  5  6  1  0
  6  7  1  0
  5  8  2  0
  8  9  1  0
  9 10  2  0
 10 11  1  0
 11 12  2  0
 11 13  1  0
 13 14  1  0
 14 15  2  0
 15 16  1  0
 16 17  2  0
 17 18  1  0
 18 19  2  0
  8 20  1  0
 20 21  1  0
 21 22  1  0
 20 23  2  0
 23  3  1  0
 19 10  1  0
 19 14  1  0
M  END
$$$$
