
     RDKit          3D

 35 38  0  0  0  0  0  0  0  0999 V2000
  -19.4475   46.7231  -21.0250 C   0  0  0  0  0  0  0  0  0  0  0  0
  -18.4345   46.0922  -20.2993 O   0  0  0  0  0  0  0  0  0  0  0  0
  -18.5743   44.8374  -19.7089 C   0  0  0  0  0  0  0  0  0  0  0  0
  -19.7840   44.4180  -19.2119 C   0  0  0  0  0  0  0  0  0  0  0  0
  -19.9251   43.1923  -18.6336 C   0  0  0  0  0  0  0  0  0  0  0  0
  -18.8326   42.3674  -18.5500 C   0  0  0  0  0  0  0  0  0  0  0  0
  -19.0052   41.0341  -17.9249 C   0  0  0  0  0  0  0  0  0  0  0  0
  -19.8260   40.2023  -18.8654 C   0  0  0  0  0  0  0  0  0  0  0  0
  -21.1382   39.9880  -18.6887 N   0  0  0  0  0  0  0  0  0  0  0  0
  -21.8073   39.2180  -19.5844 C   0  0  0  0  0  0  0  0  0  0  0  0
  -23.0456   39.0303  -19.3964 O   0  0  0  0  0  0  0  0  0  0  0  0
  -21.1386   38.6691  -20.6563 C   0  0  0  0  0  0  0  0  0  0  0  0
  -21.5264   37.8714  -21.6918 C   0  0  0  0  0  0  0  0  0  0  0  0
  -22.8881   37.3493  -21.9481 C   0  0  0  0  0  0  0  0  0  0  0  0
  -20.4238   37.6508  -22.4335 N   0  0  0  0  0  0  0  0  0  0  0  0
  -19.3678   38.2759  -21.9046 C   0  0  0  0  0  0  0  0  0  0  0  0
  -17.9771   38.2239  -22.4904 C   0  0  1  0  0  0  0  0  0  0  0  0
  -17.4993   39.5082  -23.0181 C   0  0  0  0  0  0  0  0  0  0  0  0
  -18.1952   40.2145  -24.0910 C   0  0  0  0  0  0  0  0  0  0  0  0
  -18.5692   41.6410  -23.9635 C   0  0  0  0  0  0  0  0  0  0  0  0
  -19.1980   42.2105  -25.1543 C   0  0  0  0  0  0  0  0  0  0  0  0
  -18.6818   43.4059  -25.6546 C   0  0  0  0  0  0  0  0  0  0  0  0
  -19.2072   44.0212  -26.7682 C   0  0  0  0  0  0  0  0  0  0  0  0
  -20.2963   43.4421  -27.4331 C   0  0  0  0  0  0  0  0  0  0  0  0
  -20.8013   42.2608  -26.9334 C   0  0  0  0  0  0  0  0  0  0  0  0
  -20.2470   41.6525  -25.7948 C   0  0  0  0  0  0  0  0  0  0  0  0
  -17.1248   37.2432  -21.8139 C   0  0  1  0  0  0  0  0  0  0  0  0
  -17.7077   35.9545  -21.3774 C   0  0  0  0  0  0  0  0  0  0  0  0
  -16.0997   36.8861  -22.7575 O   0  0  0  0  0  0  0  0  0  0  0  0
  -19.8196   38.8977  -20.8139 N   0  0  0  0  0  0  0  0  0  0  0  0
  -19.1971   39.6506  -19.9263 N   0  0  0  0  0  0  0  0  0  0  0  0
  -17.6023   42.7370  -19.0301 C   0  0  0  0  0  0  0  0  0  0  0  0
  -17.4841   44.0021  -19.6202 C   0  0  0  0  0  0  0  0  0  0  0  0
  -16.2684   44.4334  -20.1244 O   0  0  0  0  0  0  0  0  0  0  0  0
  -15.3150   43.5067  -20.5700 C   0  0  0  0  0  0  0  0  0  0  0  0
  1  2  1  0
  2  3  1  0
  3  4  2  0
  4  5  1  0
  5  6  2  0
  6  7  1  0
  7  8  1  0
  8  9  2  0
  9 10  1  0
 10 11  2  0
 10 12  1  0
 12 13  2  0
 13 14  1  0
 13 15  1  0
 15 16  2  0
 16 17  1  0
 17 18  1  1
 18 19  1  0
 19 20  1  0
 20 21  1  0
 21 22  2  0
 22 23  1  0
 23 24  2  0
 24 25  1  0
 25 26  2  0
 17 27  1  0
 27 28  1  6
 27 29  1  0
 16 30  1  0
 30 31  1  0
  6 32  1  0
 32 33  2  0
 33 34  1  0
 34 35  1  0
 33  3  1  0
 31  8  1  0
 30 12  1  0
 26 21  1  0
M  END
$$$$
