
     RDKit          3D

 32 34  0  0  0  0  0  0  0  0999 V2000
  -13.9391   -4.6790  -30.6108 C   0  0  0  0  0  0  0  0  0  0  0  0
  -13.5197   -5.2475  -31.8734 N   0  0  0  0  0  0  0  0  0  0  0  0
  -13.1163   -4.4131  -32.9531 C   0  0  0  0  0  0  0  0  0  0  0  0
  -12.6374   -4.9343  -34.0910 N   0  0  0  0  0  0  0  0  0  0  0  0
  -12.2541   -4.1703  -35.1176 C   0  0  0  0  0  0  0  0  0  0  0  0
  -11.7176   -4.7790  -36.3876 C   0  0  0  0  0  0  0  0  0  0  0  0
  -12.3305   -2.8420  -35.0581 N   0  0  0  0  0  0  0  0  0  0  0  0
  -12.8151   -2.2874  -33.9090 C   0  0  0  0  0  0  0  0  0  0  0  0
  -12.9224   -0.8832  -33.7823 N   0  0  0  0  0  0  0  0  0  0  0  0
  -13.5651   -0.3109  -32.6348 C   0  0  1  0  0  0  0  0  0  0  0  0
  -12.6373    0.2843  -31.6309 C   0  0  0  0  0  0  0  0  0  0  0  0
  -12.4697    1.7833  -31.7482 C   0  0  0  0  0  0  0  0  0  0  0  0
  -13.7695    2.5323  -31.5873 C   0  0  0  0  0  0  0  0  0  0  0  0
  -14.8753    1.5103  -31.7279 C   0  0  1  0  0  0  0  0  0  0  0  0
  -16.2225    2.1615  -31.7654 C   0  0  0  0  0  0  0  0  0  0  0  0
  -16.3853    3.1018  -32.5615 O   0  0  0  0  0  0  0  0  0  0  0  0
  -17.2876    1.7513  -30.9458 N   0  0  0  0  0  0  0  0  0  0  0  0
  -18.6862    1.9798  -31.0676 C   0  0  0  0  0  0  0  0  0  0  0  0
  -19.3825    1.1893  -32.1054 C   0  0  0  0  0  0  0  0  0  0  0  0
  -18.7060    0.3099  -32.9101 C   0  0  0  0  0  0  0  0  0  0  0  0
  -19.3367   -0.3095  -33.9539 C   0  0  0  0  0  0  0  0  0  0  0  0
  -20.6613   -0.0857  -34.2456 C   0  0  0  0  0  0  0  0  0  0  0  0
  -21.2899   -0.7543  -35.3597 C   0  0  0  0  0  0  0  0  0  0  0  0
  -21.7861   -1.2717  -36.2594 N   0  0  0  0  0  0  0  0  0  0  0  0
  -21.3496    0.7819  -33.4558 C   0  0  0  0  0  0  0  0  0  0  0  0
  -20.7260    1.4278  -32.3777 C   0  0  0  0  0  0  0  0  0  0  0  0
  -21.5971    2.2205  -31.5042 C   0  0  0  0  0  0  0  0  0  0  0  0
  -22.9255    1.9104  -31.7980 F   0  0  0  0  0  0  0  0  0  0  0  0
  -21.4647    1.7911  -30.1662 F   0  0  0  0  0  0  0  0  0  0  0  0
  -21.5009    3.5725  -31.5773 F   0  0  0  0  0  0  0  0  0  0  0  0
  -14.5958    0.7353  -32.9981 C   0  0  0  0  0  0  0  0  0  0  0  0
  -13.1958   -3.0800  -32.8858 N   0  0  0  0  0  0  0  0  0  0  0  0
  1  2  1  0
  2  3  1  0
  3  4  2  0
  4  5  1  0
  5  6  1  0
  5  7  2  0
  7  8  1  0
  8  9  1  0
 10  9  1  6
 10 11  1  0
 11 12  1  0
 12 13  1  0
 13 14  1  0
 14 15  1  6
 15 16  2  0
 15 17  1  0
 17 18  1  0
 18 19  1  0
 19 20  2  0
 20 21  1  0
 21 22  2  0
 22 23  1  0
 23 24  3  0
 22 25  1  0
 25 26  2  0
 26 27  1  0
 27 28  1  0
 27 29  1  0
 27 30  1  0
 14 31  1  0
  8 32  2  0
 32  3  1  0
 31 10  1  0
 26 19  1  0
M  END
$$$$
