
     RDKit          3D

 17 17  0  0  0  0  0  0  0  0999 V2000
  -15.4522   17.9331  -45.5014 C   0  0  0  0  0  0  0  0  0  0  0  0
  -14.5947   17.7520  -44.2837 C   0  0  0  0  0  0  0  0  0  0  0  0
  -13.7752   18.8667  -44.0085 O   0  0  0  0  0  0  0  0  0  0  0  0
  -12.9067   18.9640  -42.9304 C   0  0  0  0  0  0  0  0  0  0  0  0
  -13.0902   18.2976  -41.7412 C   0  0  0  0  0  0  0  0  0  0  0  0
  -12.2249   18.3922  -40.6615 C   0  0  0  0  0  0  0  0  0  0  0  0
  -12.4595   17.6807  -39.4497 N   0  0  0  0  0  0  0  0  0  0  0  0
  -13.2254   16.4897  -39.3968 C   0  0  0  0  0  0  0  0  0  0  0  0
  -13.4073   15.7025  -38.1479 C   0  0  0  0  0  0  0  0  0  0  0  0
  -13.7617   16.1130  -40.4815 O   0  0  0  0  0  0  0  0  0  0  0  0
  -11.1208   19.2146  -40.8232 C   0  0  0  0  0  0  0  0  0  0  0  0
  -10.9043   19.8924  -41.9881 C   0  0  0  0  0  0  0  0  0  0  0  0
  -11.7804   19.7802  -43.0453 C   0  0  0  0  0  0  0  0  0  0  0  0
  -11.5406   20.5008  -44.2697 C   0  0  0  0  0  0  0  0  0  0  0  0
  -11.7551   19.9554  -45.3804 O   0  0  0  0  0  0  0  0  0  0  0  0
  -11.0709   21.8066  -44.2971 O   0  0  0  0  0  0  0  0  0  0  0  0
  -11.4337   22.7376  -45.2898 C   0  0  0  0  0  0  0  0  0  0  0  0
  1  2  1  0
  2  3  1  0
  3  4  1  0
  4  5  2  0
  5  6  1  0
  6  7  1  0
  7  8  1  0
  8  9  1  0
  8 10  2  0
  6 11  2  0
 11 12  1  0
 12 13  2  0
 13 14  1  0
 14 15  2  0
 14 16  1  0
 16 17  1  0
 13  4  1  0
M  END
$$$$
