
     RDKit          3D

 29 31  0  0  0  0  0  0  0  0999 V2000
  -18.3854   38.2659  -22.8981 O   0  0  0  0  0  0  0  0  0  0  0  0
  -18.9155   38.1831  -21.7624 C   0  0  0  0  0  0  0  0  0  0  0  0
  -18.3209   38.9447  -20.6371 C   0  0  0  0  0  0  0  0  0  0  0  0
  -18.0878   40.3816  -21.0453 C   0  0  0  0  0  0  0  0  0  0  0  0
  -17.5330   41.1605  -19.9496 N   0  0  0  0  0  0  0  0  0  0  0  0
  -17.4417   42.5648  -20.1296 C   0  0  0  0  0  0  0  0  0  0  0  0
  -18.2834   43.1466  -20.8913 O   0  0  0  0  0  0  0  0  0  0  0  0
  -16.4248   43.3748  -19.4799 C   0  0  0  0  0  0  0  0  0  0  0  0
  -15.8179   43.0451  -18.2929 C   0  0  0  0  0  0  0  0  0  0  0  0
  -14.8513   43.8227  -17.6831 C   0  0  0  0  0  0  0  0  0  0  0  0
  -14.4738   44.9976  -18.3014 C   0  0  0  0  0  0  0  0  0  0  0  0
  -13.5068   45.8127  -17.7278 O   0  0  0  0  0  0  0  0  0  0  0  0
  -13.8750   46.8792  -16.8716 C   0  0  0  0  0  0  0  0  0  0  0  0
  -12.7302   47.5225  -16.4639 F   0  0  0  0  0  0  0  0  0  0  0  0
  -14.7345   47.7062  -17.5495 F   0  0  0  0  0  0  0  0  0  0  0  0
  -14.4968   46.3939  -15.7396 F   0  0  0  0  0  0  0  0  0  0  0  0
  -15.0517   45.3757  -19.4948 C   0  0  0  0  0  0  0  0  0  0  0  0
  -16.0111   44.5698  -20.0666 C   0  0  0  0  0  0  0  0  0  0  0  0
  -20.0486   37.3808  -21.5787 N   0  0  0  0  0  0  0  0  0  0  0  0
  -20.6916   36.6260  -22.6371 C   0  0  2  0  0  0  0  0  0  0  0  0
  -22.0430   37.2316  -22.8809 C   0  0  0  0  0  0  0  0  0  0  0  0
  -23.0047   36.1860  -23.4248 C   0  0  0  0  0  0  0  0  0  0  0  0
  -23.2446   35.1966  -22.3037 C   0  0  0  0  0  0  0  0  0  0  0  0
  -21.9478   34.5297  -22.0163 C   0  0  0  0  0  0  0  0  0  0  0  0
  -21.9152   33.2060  -21.5805 C   0  0  0  0  0  0  0  0  0  0  0  0
  -20.7343   32.5503  -21.3028 C   0  0  0  0  0  0  0  0  0  0  0  0
  -19.5639   33.2608  -21.4737 C   0  0  0  0  0  0  0  0  0  0  0  0
  -19.5947   34.5709  -21.9050 C   0  0  0  0  0  0  0  0  0  0  0  0
  -20.7873   35.2178  -22.1804 C   0  0  0  0  0  0  0  0  0  0  0  0
  1  2  2  0
  2  3  1  0
  3  4  1  0
  4  5  1  0
  5  6  1  0
  6  7  2  0
  6  8  1  0
  8  9  2  0
  9 10  1  0
 10 11  2  0
 11 12  1  0
 12 13  1  0
 13 14  1  0
 13 15  1  0
 13 16  1  0
 11 17  1  0
 17 18  2  0
  2 19  1  0
 20 19  1  1
 20 21  1  0
 21 22  1  0
 22 23  1  0
 23 24  1  0
 24 25  2  0
 25 26  1  0
 26 27  2  0
 27 28  1  0
 28 29  2  0
 18  8  1  0
 29 20  1  0
 29 24  1  0
M  END
$$$$
