
     RDKit          3D

 26 29  0  0  0  0  0  0  0  0999 V2000
  -19.8710   39.0310  -18.6584 N   0  0  0  0  0  0  0  0  0  0  0  0
  -19.2886   39.0440  -19.7229 C   0  0  0  0  0  0  0  0  0  0  0  0
  -18.6066   39.0527  -20.9392 C   0  0  0  0  0  0  0  0  0  0  0  0
  -19.4688   38.5898  -22.1013 C   0  0  0  0  0  0  0  0  0  0  0  0
  -19.4154   37.5649  -22.7216 O   0  0  0  0  0  0  0  0  0  0  0  0
  -20.4854   39.6119  -22.4592 N   0  0  0  0  0  0  0  0  0  0  0  0
  -20.2012   40.9967  -22.2324 C   0  0  0  0  0  0  0  0  0  0  0  0
  -21.1185   42.4140  -22.5962 S   0  0  0  0  0  0  0  0  0  0  0  0
  -19.8941   43.6164  -21.9990 C   0  0  0  0  0  0  0  0  0  0  0  0
  -18.8859   42.7995  -21.5721 C   0  0  0  0  0  0  0  0  0  0  0  0
  -17.6332   43.4519  -20.9766 C   0  0  0  0  0  0  0  0  0  0  0  0
  -17.0472   44.4710  -21.6610 C   0  0  0  0  0  0  0  0  0  0  0  0
  -15.9458   45.0927  -21.1129 C   0  0  0  0  0  0  0  0  0  0  0  0
  -15.4512   44.6565  -19.8472 C   0  0  0  0  0  0  0  0  0  0  0  0
  -14.3614   45.4855  -19.2406 C   0  0  0  0  0  0  0  0  0  0  0  0
  -13.1935   44.8271  -18.9094 C   0  0  0  0  0  0  0  0  0  0  0  0
  -12.1463   45.4789  -18.3660 C   0  0  0  0  0  0  0  0  0  0  0  0
  -12.3024   46.8425  -18.1534 C   0  0  0  0  0  0  0  0  0  0  0  0
  -13.4437   47.4831  -18.4806 C   0  0  0  0  0  0  0  0  0  0  0  0
  -14.5793   46.8084  -19.0619 C   0  0  0  0  0  0  0  0  0  0  0  0
  -15.6869   47.5596  -19.3530 O   0  0  0  0  0  0  0  0  0  0  0  0
  -16.0671   43.6417  -19.2276 C   0  0  0  0  0  0  0  0  0  0  0  0
  -17.1985   42.9954  -19.7839 C   0  0  0  0  0  0  0  0  0  0  0  0
  -19.0132   41.4651  -21.6826 C   0  0  0  0  0  0  0  0  0  0  0  0
  -18.1070   40.3820  -21.3859 C   0  0  0  0  0  0  0  0  0  0  0  0
  -16.8168   40.4951  -21.5003 O   0  0  0  0  0  0  0  0  0  0  0  0
  1  2  3  0
  2  3  1  0
  3  4  1  0
  4  5  2  0
  4  6  1  0
  6  7  1  0
  7  8  1  0
  8  9  1  0
  9 10  2  0
 10 11  1  0
 11 12  2  0
 12 13  1  0
 13 14  2  0
 14 15  1  0
 15 16  2  0
 16 17  1  0
 17 18  2  0
 18 19  1  0
 19 20  2  0
 20 21  1  0
 14 22  1  0
 22 23  2  0
 10 24  1  0
 24 25  1  0
 25 26  2  0
 25  3  1  0
 24  7  2  0
 23 11  1  0
 20 15  1  0
M  END
$$$$
