
     RDKit          3D

 23 24  0  0  0  0  0  0  0  0999 V2000
  -26.1696   26.2736  -35.9498 Cl  0  0  0  0  0  0  0  0  0  0  0  0
  -26.1676   26.2756  -35.9491 Cl  0  0  0  0  0  0  0  0  0  0  0  0
  -26.2487   30.3411  -34.4138 C   0  0  0  0  0  0  0  0  0  0  0  0
  -24.9141   30.5543  -34.6639 C   0  0  0  0  0  0  0  0  0  0  0  0
  -24.2471   29.6230  -35.4285 C   0  0  0  0  0  0  0  0  0  0  0  0
  -24.9100   28.5083  -35.9260 C   0  0  0  0  0  0  0  0  0  0  0  0
  -26.2267   28.2787  -35.6911 C   0  0  0  0  0  0  0  0  0  0  0  0
  -26.8960   29.2324  -34.9120 C   0  0  0  0  0  0  0  0  0  0  0  0
  -27.0888   27.2371  -36.0861 N   0  0  0  0  0  0  0  0  0  0  0  0
  -26.8201   25.9977  -36.3596 C   0  0  0  0  0  0  0  0  0  0  0  0
  -27.9085   25.1647  -36.7359 N   0  0  0  0  0  0  0  0  0  0  0  0
  -28.9091   24.8395  -35.7522 C   0  0  0  0  0  0  0  0  0  0  0  0
  -29.6307   23.5592  -35.9978 C   0  0  0  0  0  0  0  0  0  0  0  0
  -29.8516   23.2411  -37.3792 N   0  0  0  0  0  0  0  0  0  0  0  0
  -29.5488   24.3596  -38.2522 C   0  0  0  0  0  0  0  0  0  0  0  0
  -28.0489   24.6338  -38.0681 C   0  0  0  0  0  0  0  0  0  0  0  0
  -25.5538   25.2797  -36.3507 C   0  0  0  0  0  0  0  0  0  0  0  0
  -25.7256   23.9345  -36.1080 C   0  0  0  0  0  0  0  0  0  0  0  0
  -24.6252   23.0992  -36.0655 C   0  0  0  0  0  0  0  0  0  0  0  0
  -23.3745   23.6375  -36.2686 C   0  0  0  0  0  0  0  0  0  0  0  0
  -23.1646   24.9740  -36.5133 C   0  0  0  0  0  0  0  0  0  0  0  0
  -24.2740   25.7851  -36.5509 C   0  0  0  0  0  0  0  0  0  0  0  0
  -23.7899   27.4811  -36.8793 S   0  0  0  0  0  0  0  0  0  0  0  0
  3  4  2  0
  4  5  1  0
  5  6  2  0
  6  7  1  0
  7  8  2  0
  7  9  1  0
  9 10  2  0
 10 11  1  0
 11 12  1  0
 12 13  1  0
 13 14  1  0
 14 15  1  0
 15 16  1  0
 10 17  1  0
 17 18  2  0
 18 19  1  0
 19 20  2  0
 20 21  1  0
 21 22  2  0
 22 23  1  0
  8  3  1  0
 16 11  1  0
 22 17  1  0
 23  6  1  0
M  END
$$$$
