
     RDKit          3D

 25 31  0  0  0  0  0  0  0  0999 V2000
  -17.1043   40.4825  -18.5369 O   0  0  0  0  0  0  0  0  0  0  0  0
  -17.8279   41.1167  -19.3587 C   0  0  0  0  0  0  0  0  0  0  0  0
  -19.0195   40.3573  -19.9085 C   0  0  0  0  0  0  0  0  0  0  0  0
  -19.9221   41.2529  -20.7321 C   0  0  0  0  0  0  0  0  0  0  0  0
  -20.8543   40.6727  -21.5088 O   0  0  0  0  0  0  0  0  0  0  0  0
  -22.0353   41.4238  -21.5474 C   0  0  0  0  0  0  0  0  0  0  0  0
  -21.7734   42.9010  -21.7261 C   0  0  0  0  0  0  0  0  0  0  0  0
  -20.7380   43.5537  -22.2114 C   0  0  0  0  0  0  0  0  0  0  0  0
  -20.8294   44.9919  -22.2317 C   0  0  0  0  0  0  0  0  0  0  0  0
  -19.5818   45.7006  -22.2287 N   0  0  0  0  0  0  0  0  0  0  0  0
  -19.4914   46.4689  -21.0030 C   0  0  0  0  0  0  0  0  0  0  0  0
  -18.8543   45.5666  -19.9834 C   0  0  0  0  0  0  0  0  0  0  0  0
  -18.1205   44.4700  -20.7918 C   0  0  0  0  0  0  0  0  0  0  0  0
  -16.7147   44.4728  -20.3216 C   0  0  0  0  0  0  0  0  0  0  0  0
  -15.7597   45.4427  -20.4134 C   0  0  0  0  0  0  0  0  0  0  0  0
  -14.4854   45.2980  -19.8875 C   0  0  0  0  0  0  0  0  0  0  0  0
  -14.2182   44.1007  -19.2512 C   0  0  0  0  0  0  0  0  0  0  0  0
  -15.1554   43.1156  -19.1468 C   0  0  0  0  0  0  0  0  0  0  0  0
  -16.4202   43.2850  -19.6811 C   0  0  0  0  0  0  0  0  0  0  0  0
  -17.5426   42.4323  -19.7337 N   0  0  0  0  0  0  0  0  0  0  0  0
  -18.6071   43.1599  -20.3864 C   0  0  0  0  0  0  0  0  0  0  0  0
  -18.9704   42.1704  -21.4876 C   0  0  0  0  0  0  0  0  0  0  0  0
  -19.5138   42.8131  -22.7004 C   0  0  0  0  0  0  0  0  0  0  0  0
  -18.4468   43.7710  -23.1956 C   0  0  0  0  0  0  0  0  0  0  0  0
  -18.3886   44.8918  -22.1748 C   0  0  0  0  0  0  0  0  0  0  0  0
  1  2  2  0
  2  3  1  0
  3  4  1  0
  4  5  1  0
  5  6  1  0
  6  7  1  0
  7  8  2  0
  8  9  1  0
  9 10  1  0
 10 11  1  0
 11 12  1  0
 12 13  1  0
 13 14  1  0
 14 15  2  0
 15 16  1  0
 16 17  2  0
 17 18  1  0
 18 19  2  0
 19 20  1  0
 20 21  1  0
 21 22  1  0
 22 23  1  0
 23 24  1  0
 24 25  1  0
 20  2  1  0
 22  4  1  0
 23  8  1  0
 25 10  1  0
 21 13  1  0
 25 13  1  0
 19 14  1  0
M  END
$$$$
