
     RDKit          3D

 21 23  0  0  0  0  0  0  0  0999 V2000
  -20.0351   36.0668  -22.6215 O   0  0  0  0  0  0  0  0  0  0  0  0
  -19.3708   36.7703  -21.8180 C   0  0  0  0  0  0  0  0  0  0  0  0
  -18.3684   36.2151  -21.0354 O   0  0  0  0  0  0  0  0  0  0  0  0
  -19.6528   38.2051  -21.6980 C   0  0  0  0  0  0  0  0  0  0  0  0
  -20.3865   38.8823  -22.6484 C   0  0  0  0  0  0  0  0  0  0  0  0
  -20.6474   40.2237  -22.5316 C   0  0  0  0  0  0  0  0  0  0  0  0
  -20.1540   40.9110  -21.4207 C   0  0  0  0  0  0  0  0  0  0  0  0
  -19.4199   40.2604  -20.4589 C   0  0  0  0  0  0  0  0  0  0  0  0
  -18.8282   41.1451  -19.1017 S   0  0  0  0  0  6  0  0  0  0  0  0
  -17.3642   40.8165  -18.8432 O   0  0  0  0  0  0  0  0  0  0  0  0
  -19.5715   40.7981  -17.8681 O   0  0  0  0  0  0  0  0  0  0  0  0
  -18.8629   42.8645  -19.4043 N   0  0  0  0  0  0  0  0  0  0  0  0
  -17.9983   43.5643  -20.3255 C   0  0  0  0  0  0  0  0  0  0  0  0
  -17.9751   44.9986  -19.8555 C   0  0  0  0  0  0  0  0  0  0  0  0
  -19.2406   45.1133  -19.0545 C   0  0  0  0  0  0  0  0  0  0  0  0
  -19.9005   46.2313  -18.5839 C   0  0  0  0  0  0  0  0  0  0  0  0
  -21.0647   46.0679  -17.8606 C   0  0  0  0  0  0  0  0  0  0  0  0
  -21.5247   44.7863  -17.6356 C   0  0  0  0  0  0  0  0  0  0  0  0
  -20.8796   43.6576  -18.0974 C   0  0  0  0  0  0  0  0  0  0  0  0
  -19.7125   43.8386  -18.8218 C   0  0  0  0  0  0  0  0  0  0  0  0
  -19.1750   38.9184  -20.6025 C   0  0  0  0  0  0  0  0  0  0  0  0
  1  2  2  0
  2  3  1  0
  2  4  1  0
  4  5  2  0
  5  6  1  0
  6  7  2  0
  7  8  1  0
  8  9  1  0
  9 10  2  0
  9 11  2  0
  9 12  1  0
 12 13  1  0
 13 14  1  0
 14 15  1  0
 15 16  2  0
 16 17  1  0
 17 18  2  0
 18 19  1  0
 19 20  2  0
  8 21  2  0
 21  4  1  0
 20 12  1  0
 20 15  1  0
M  END
$$$$
