
     RDKit          3D

 28 31  0  0  0  0  0  0  0  0999 V2000
  -29.7073   11.0452  -18.5801 C   0  0  0  0  0  0  0  0  0  0  0  0
  -29.8994   12.2455  -19.3847 C   0  0  0  0  0  0  0  0  0  0  0  0
  -30.8119   12.2371  -20.3861 C   0  0  0  0  0  0  0  0  0  0  0  0
  -31.6810   11.1192  -20.6617 C   0  0  0  0  0  0  0  0  0  0  0  0
  -33.0366   11.1097  -20.4707 C   0  0  0  0  0  0  0  0  0  0  0  0
  -33.7853    9.9987  -20.7439 C   0  0  0  0  0  0  0  0  0  0  0  0
  -33.2364    8.8298  -21.2236 C   0  0  0  0  0  0  0  0  0  0  0  0
  -34.0359    7.6372  -21.5174 C   0  0  0  0  0  0  0  0  0  0  0  0
  -33.8421    6.8914  -22.6611 C   0  0  0  0  0  0  0  0  0  0  0  0
  -34.5896    5.7690  -22.9445 C   0  0  0  0  0  0  0  0  0  0  0  0
  -35.5704    5.3633  -22.0639 C   0  0  0  0  0  0  0  0  0  0  0  0
  -35.7654    6.1107  -20.9167 C   0  0  0  0  0  0  0  0  0  0  0  0
  -35.0192    7.2242  -20.6420 C   0  0  0  0  0  0  0  0  0  0  0  0
  -35.1952    7.9746  -19.5177 F   0  0  0  0  0  0  0  0  0  0  0  0
  -31.8686    8.8428  -21.4158 C   0  0  0  0  0  0  0  0  0  0  0  0
  -31.0970    9.9407  -21.1501 C   0  0  0  0  0  0  0  0  0  0  0  0
  -30.9316   13.3119  -21.1683 N   0  0  0  0  0  0  0  0  0  0  0  0
  -30.1671   14.4061  -20.9835 C   0  0  0  0  0  0  0  0  0  0  0  0
  -30.3265   15.5096  -21.8275 C   0  0  0  0  0  0  0  0  0  0  0  0
  -29.5811   16.6479  -21.6895 C   0  0  0  0  0  0  0  0  0  0  0  0
  -28.6564   16.6646  -20.6747 C   0  0  0  0  0  0  0  0  0  0  0  0
  -27.8824   17.7602  -20.4792 F   0  0  0  0  0  0  0  0  0  0  0  0
  -28.4538   15.5931  -19.8022 C   0  0  0  0  0  0  0  0  0  0  0  0
  -29.2193   14.4575  -19.9639 C   0  0  0  0  0  0  0  0  0  0  0  0
  -29.0702   13.3550  -19.1328 C   0  0  0  0  0  0  0  0  0  0  0  0
  -28.1577   13.3316  -18.0299 C   0  0  0  0  0  0  0  0  0  0  0  0
  -28.5502   13.5530  -16.8333 O   0  0  0  0  0  0  0  0  0  0  0  0
  -26.8212   13.0803  -18.1241 O   0  0  0  0  0  0  0  0  0  0  0  0
  1  2  1  0
  2  3  2  0
  3  4  1  0
  4  5  2  0
  5  6  1  0
  6  7  2  0
  7  8  1  0
  8  9  2  0
  9 10  1  0
 10 11  2  0
 11 12  1  0
 12 13  2  0
 13 14  1  0
  7 15  1  0
 15 16  2  0
  3 17  1  0
 17 18  2  0
 18 19  1  0
 19 20  2  0
 20 21  1  0
 21 22  1  0
 21 23  2  0
 23 24  1  0
 24 25  2  0
 25 26  1  0
 26 27  2  0
 26 28  1  0
 25  2  1  0
 16  4  1  0
 24 18  1  0
 13  8  1  0
M  END
$$$$
