
     RDKit          3D

 30 33  0  0  0  0  0  0  0  0999 V2000
  -18.7359   32.3407  -23.8595 C   0  0  0  0  0  0  0  0  0  0  0  0
  -19.2742   33.2861  -22.8722 N   0  0  0  0  0  0  0  0  0  0  0  0
  -19.5881   34.6163  -23.1976 C   0  0  0  0  0  0  0  0  0  0  0  0
  -19.6815   34.9359  -24.4101 O   0  0  0  0  0  0  0  0  0  0  0  0
  -19.8177   35.6756  -22.1794 C   0  0  1  0  0  0  0  0  0  0  0  0
  -18.9729   36.7644  -22.3874 O   0  0  0  0  0  0  0  0  0  0  0  0
  -19.4963   37.7073  -21.5152 C   0  0  1  0  0  0  0  0  0  0  0  0
  -18.8142   38.9727  -21.6373 N   0  0  0  0  0  0  0  0  0  0  0  0
  -18.0460   39.3591  -22.6693 C   0  0  0  0  0  0  0  0  0  0  0  0
  -17.5808   40.5951  -22.4312 N   0  0  0  0  0  0  0  0  0  0  0  0
  -18.0378   41.0322  -21.2428 C   0  0  0  0  0  0  0  0  0  0  0  0
  -17.8874   42.1920  -20.5109 C   0  0  0  0  0  0  0  0  0  0  0  0
  -17.0969   43.2530  -21.0017 N   0  0  0  0  0  0  0  0  0  0  0  0
  -17.1844   44.6024  -20.4540 C   0  0  0  0  0  0  0  0  0  0  0  0
  -16.1401   44.7851  -19.4256 C   0  0  0  0  0  0  0  0  0  0  0  0
  -16.4921   45.1094  -18.1472 C   0  0  0  0  0  0  0  0  0  0  0  0
  -15.5113   45.2758  -17.2032 C   0  0  0  0  0  0  0  0  0  0  0  0
  -14.1628   45.1154  -17.5450 C   0  0  0  0  0  0  0  0  0  0  0  0
  -13.8425   44.7874  -18.8471 C   0  0  0  0  0  0  0  0  0  0  0  0
  -11.8069   44.5397  -19.3863 I   0  0  0  0  0  0  0  0  0  0  0  0
  -14.8095   44.6155  -19.8105 C   0  0  0  0  0  0  0  0  0  0  0  0
  -18.5295   42.2475  -19.3223 N   0  0  0  0  0  0  0  0  0  0  0  0
  -19.2820   41.2353  -18.8572 C   0  0  0  0  0  0  0  0  0  0  0  0
  -20.0716   41.4340  -17.2831 Cl  0  0  0  0  0  0  0  0  0  0  0  0
  -19.4381   40.0952  -19.5619 N   0  0  0  0  0  0  0  0  0  0  0  0
  -18.8173   39.9911  -20.7545 C   0  0  0  0  0  0  0  0  0  0  0  0
  -20.9374   37.7594  -21.9131 C   0  0  2  0  0  0  0  0  0  0  0  0
  -21.7872   38.0046  -20.8431 O   0  0  0  0  0  0  0  0  0  0  0  0
  -21.1853   36.3134  -22.3562 C   0  0  2  0  0  0  0  0  0  0  0  0
  -22.0685   35.6657  -21.4977 O   0  0  0  0  0  0  0  0  0  0  0  0
  1  2  1  0
  2  3  1  0
  3  4  2  0
  5  3  1  6
  5  6  1  0
  6  7  1  0
  7  8  1  6
  8  9  1  0
  9 10  2  0
 10 11  1  0
 11 12  2  0
 12 13  1  0
 13 14  1  0
 14 15  1  0
 15 16  2  0
 16 17  1  0
 17 18  2  0
 18 19  1  0
 19 20  1  0
 19 21  2  0
 12 22  1  0
 22 23  2  0
 23 24  1  0
 23 25  1  0
 25 26  2  0
  7 27  1  0
 27 28  1  1
 27 29  1  0
 29 30  1  1
 29  5  1  0
 26  8  1  0
 26 11  1  0
 21 15  1  0
M  END
$$$$
