
     RDKit          3D

 24 25  0  0  0  0  0  0  0  0999 V2000
  -14.0302   15.2904  -26.3423 N   0  0  0  0  0  0  0  0  0  0  0  0
  -13.5688   14.0110  -26.7465 C   0  0  0  0  0  0  0  0  0  0  0  0
  -12.4661   13.4103  -26.1812 C   0  0  0  0  0  0  0  0  0  0  0  0
  -12.0304   12.1610  -26.5883 C   0  0  0  0  0  0  0  0  0  0  0  0
  -12.7085   11.4889  -27.5851 C   0  0  0  0  0  0  0  0  0  0  0  0
  -13.8088   12.1158  -28.1322 C   0  0  0  0  0  0  0  0  0  0  0  0
  -14.2593   13.3583  -27.7417 C   0  0  0  0  0  0  0  0  0  0  0  0
  -15.4113   13.9284  -28.3682 N   0  0  0  0  0  0  0  0  0  0  0  0
  -16.6416   13.2271  -28.4751 C   0  0  0  0  0  0  0  0  0  0  0  0
  -17.0724   12.6495  -27.4496 O   0  0  0  0  0  0  0  0  0  0  0  0
  -17.4134   13.1703  -29.7698 C   0  0  0  0  0  0  0  0  0  0  0  0
  -17.4585   14.5404  -30.3115 C   0  0  0  0  0  0  0  0  0  0  0  0
  -18.2168   14.7682  -31.5525 C   0  0  0  0  0  0  0  0  0  0  0  0
  -18.3686   16.1408  -32.0355 C   0  0  0  0  0  0  0  0  0  0  0  0
  -19.1472   17.1238  -31.2605 C   0  0  0  0  0  0  0  0  0  0  0  0
  -20.5076   17.1998  -31.9604 C   0  0  0  0  0  0  0  0  0  0  0  0
  -21.4313   16.4125  -31.7142 O   0  0  0  0  0  0  0  0  0  0  0  0
  -20.6663   18.2225  -32.9142 N   0  0  0  0  0  0  0  0  0  0  0  0
  -21.9137   18.3503  -33.5681 C   0  0  0  0  0  0  0  0  0  0  0  0
  -21.9435   18.4420  -34.9387 C   0  0  0  0  0  0  0  0  0  0  0  0
  -23.1423   18.5656  -35.5800 C   0  0  0  0  0  0  0  0  0  0  0  0
  -24.3167   18.5993  -34.8701 C   0  0  0  0  0  0  0  0  0  0  0  0
  -24.3232   18.5098  -33.4962 C   0  0  0  0  0  0  0  0  0  0  0  0
  -23.0865   18.3833  -32.8497 C   0  0  0  0  0  0  0  0  0  0  0  0
  1  2  1  0
  2  3  2  0
  3  4  1  0
  4  5  2  0
  5  6  1  0
  6  7  2  0
  7  8  1  0
  8  9  1  0
  9 10  2  0
  9 11  1  0
 11 12  1  0
 12 13  1  0
 13 14  1  0
 14 15  1  0
 15 16  1  0
 16 17  2  0
 16 18  1  0
 18 19  1  0
 19 20  2  0
 20 21  1  0
 21 22  2  0
 22 23  1  0
 23 24  2  0
  7  2  1  0
 24 19  1  0
M  END
$$$$
