
     RDKit          3D

 13 13  0  0  0  0  0  0  0  0999 V2000
  -16.8604   15.1368  -28.3863 C   0  0  0  0  0  0  0  0  0  0  0  0
  -16.1423   13.8559  -28.4387 C   0  0  0  0  0  0  0  0  0  0  0  0
  -16.6715   12.8619  -29.0090 O   0  0  0  0  0  0  0  0  0  0  0  0
  -14.8831   13.6505  -27.8894 O   0  0  0  0  0  0  0  0  0  0  0  0
  -14.2123   12.4127  -27.9514 C   0  0  0  0  0  0  0  0  0  0  0  0
  -13.8659   11.8730  -26.5770 C   0  0  0  0  0  0  0  0  0  0  0  0
  -12.4921   11.4713  -26.5594 N   0  0  0  0  0  0  0  0  0  0  0  0
  -12.1709   10.5946  -27.6833 C   0  0  0  0  0  0  0  0  0  0  0  0
  -12.2605   11.3236  -29.0058 C   0  0  0  0  0  0  0  0  0  0  0  0
  -12.9240   12.6564  -28.7330 C   0  0  0  0  0  0  0  0  0  0  0  0
  -12.0249   13.4848  -27.8096 C   0  0  0  0  0  0  0  0  0  0  0  0
  -11.6182   12.6331  -26.6271 C   0  0  0  0  0  0  0  0  0  0  0  0
  -14.2515   12.9854  -27.9623 Cl  0  0  0  0  0  0  0  0  0  0  0  0
  1  2  1  0
  2  3  2  0
  2  4  1  0
  4  5  1  0
  5  6  1  0
  6  7  1  0
  7  8  1  0
  8  9  1  0
  9 10  1  0
 10 11  1  0
 11 12  1  0
 10  5  1  0
 12  7  1  0
M  END
$$$$
