
     RDKit          3D

 30 32  0  0  0  0  0  0  0  0999 V2000
  -17.9762   41.8688  -21.8643 Br  0  0  0  0  0  0  0  0  0  0  0  0
  -12.3665   44.9893  -20.3475 C   0  0  0  0  0  0  0  0  0  0  0  0
  -13.7635   45.0361  -20.2041 O   0  0  0  0  0  0  0  0  0  0  0  0
  -14.4134   45.9468  -19.3819 C   0  0  0  0  0  0  0  0  0  0  0  0
  -13.6151   46.8536  -18.6704 C   0  0  0  0  0  0  0  0  0  0  0  0
  -14.2261   47.7724  -17.8437 C   0  0  0  0  0  0  0  0  0  0  0  0
  -15.5869   47.7969  -17.7214 C   0  0  0  0  0  0  0  0  0  0  0  0
  -16.3575   46.8915  -18.4340 C   0  0  0  0  0  0  0  0  0  0  0  0
  -15.7875   45.9549  -19.2729 C   0  0  0  0  0  0  0  0  0  0  0  0
  -16.5712   45.0349  -20.0086 N   0  0  0  0  0  0  0  0  0  0  0  0
  -16.6020   44.9806  -21.4532 C   0  0  0  0  0  0  0  0  0  0  0  0
  -16.5245   43.5781  -22.0042 C   0  0  0  0  0  0  0  0  0  0  0  0
  -17.4857   42.6966  -21.3431 N   0  0  0  0  0  0  0  0  0  0  0  0
  -16.8224   41.5674  -20.7798 C   0  0  0  0  0  0  0  0  0  0  0  0
  -17.8180   40.6307  -20.1483 C   0  0  0  0  0  0  0  0  0  0  0  0
  -18.8142   40.2024  -21.1986 C   0  0  0  0  0  0  0  0  0  0  0  0
  -18.1355   39.5025  -22.3244 C   0  0  0  0  0  0  0  0  0  0  0  0
  -19.1234   39.0806  -23.3353 N   0  0  0  0  0  0  0  0  0  0  0  0
  -19.8368   37.8550  -23.4099 C   0  0  0  0  0  0  0  0  0  0  0  0
  -19.7399   36.8915  -22.5956 O   0  0  0  0  0  0  0  0  0  0  0  0
  -20.7221   37.8718  -24.5961 C   0  0  0  0  0  0  0  0  0  0  0  0
  -21.6065   36.9443  -25.1104 C   0  0  0  0  0  0  0  0  0  0  0  0
  -22.3140   37.2334  -26.2549 C   0  0  0  0  0  0  0  0  0  0  0  0
  -22.1084   38.4613  -26.8552 C   0  0  0  0  0  0  0  0  0  0  0  0
  -21.2205   39.3740  -26.3256 C   0  0  0  0  0  0  0  0  0  0  0  0
  -20.5081   39.1023  -25.1870 C   0  0  0  0  0  0  0  0  0  0  0  0
  -19.5284   39.8825  -24.4419 C   0  0  0  0  0  0  0  0  0  0  0  0
  -19.0968   41.0546  -24.7020 O   0  0  0  0  0  0  0  0  0  0  0  0
  -18.2505   43.3964  -20.3681 C   0  0  0  0  0  0  0  0  0  0  0  0
  -17.4000   44.0826  -19.2919 C   0  0  0  0  0  0  0  0  0  0  0  0
  2  3  1  0
  3  4  1  0
  4  5  2  0
  5  6  1  0
  6  7  2  0
  7  8  1  0
  8  9  2  0
  9 10  1  0
 10 11  1  0
 11 12  1  0
 12 13  1  0
 13 14  1  0
 14 15  1  0
 15 16  1  0
 16 17  1  0
 17 18  1  0
 18 19  1  0
 19 20  2  0
 19 21  1  0
 21 22  2  0
 22 23  1  0
 23 24  2  0
 24 25  1  0
 25 26  2  0
 26 27  1  0
 27 28  2  0
 13 29  1  0
 29 30  1  0
  9  4  1  0
 30 10  1  0
 27 18  1  0
 26 21  1  0
M  END
$$$$
