
     RDKit          3D

 30 32  0  0  0  0  0  0  0  0999 V2000
  -44.3393    9.0267  -34.6699 Cl  0  0  0  0  0  0  0  0  0  0  0  0
  -44.5842    8.3474  -35.0084 O   0  0  0  0  0  0  0  0  0  0  0  0
  -48.4600    5.2851  -42.1229 O   0  0  0  0  0  0  0  0  0  0  0  0
  -47.7946    5.5029  -41.0474 C   0  0  0  0  0  0  0  0  0  0  0  0
  -48.2734    6.2518  -39.8644 C   0  0  0  0  0  0  0  0  0  0  0  0
  -47.1159    6.2209  -38.9294 C   0  0  0  0  0  0  0  0  0  0  0  0
  -46.9449    6.7486  -37.6779 C   0  0  0  0  0  0  0  0  0  0  0  0
  -45.7519    6.6033  -36.9363 C   0  0  0  0  0  0  0  0  0  0  0  0
  -45.7230    7.2229  -35.6190 C   0  0  0  0  0  0  0  0  0  0  0  0
  -44.4307    7.4430  -34.9464 C   0  0  0  0  0  0  0  0  0  0  0  0
  -43.4593    8.2388  -35.6177 N   0  0  0  0  0  0  0  0  0  0  0  0
  -42.3113    8.3426  -34.7356 C   0  0  0  0  0  0  0  0  0  0  0  0
  -42.3431    9.5590  -33.8718 C   0  0  0  0  0  0  0  0  0  0  0  0
  -43.6277   10.1946  -33.8138 N   0  0  0  0  0  0  0  0  0  0  0  0
  -44.2297   10.5167  -32.5304 C   0  0  0  0  0  0  0  0  0  0  0  0
  -45.4761   10.0074  -32.2694 N   0  0  0  0  0  0  0  0  0  0  0  0
  -45.8883   10.6357  -30.6086 S   0  0  0  0  0  0  0  0  0  0  0  0
  -44.3731   11.5054  -30.4305 C   0  0  0  0  0  0  0  0  0  0  0  0
  -43.9078   12.2831  -29.3672 C   0  0  0  0  0  0  0  0  0  0  0  0
  -42.6742   12.8885  -29.4262 C   0  0  0  0  0  0  0  0  0  0  0  0
  -41.9586   12.6717  -30.5827 C   0  0  0  0  0  0  0  0  0  0  0  0
  -42.4018   11.9131  -31.6298 C   0  0  0  0  0  0  0  0  0  0  0  0
  -43.6784   11.2795  -31.5830 C   0  0  0  0  0  0  0  0  0  0  0  0
  -44.2890   10.4933  -35.0647 C   0  0  0  0  0  0  0  0  0  0  0  0
  -43.8866    9.4989  -36.1132 C   0  0  0  0  0  0  0  0  0  0  0  0
  -44.7402    5.9159  -37.4845 C   0  0  0  0  0  0  0  0  0  0  0  0
  -43.1702    5.6218  -36.7114 Cl  0  0  0  0  0  0  0  0  0  0  0  0
  -44.9032    5.3719  -38.7626 C   0  0  0  0  0  0  0  0  0  0  0  0
  -46.0784    5.5139  -39.4965 C   0  0  0  0  0  0  0  0  0  0  0  0
  -46.4792    5.0762  -40.7743 N   0  0  0  0  0  0  0  0  0  0  0  0
  3  4  2  0
  4  5  1  0
  5  6  1  0
  6  7  2  0
  7  8  1  0
  8  9  1  0
  9 10  1  0
 10 11  1  0
 11 12  1  0
 12 13  1  0
 13 14  1  0
 14 15  1  0
 15 16  2  0
 16 17  1  0
 17 18  1  0
 18 19  2  0
 19 20  1  0
 20 21  2  0
 21 22  1  0
 22 23  2  0
 14 24  1  0
 24 25  1  0
  8 26  2  0
 26 27  1  0
 26 28  1  0
 28 29  2  0
 29 30  1  0
 30  4  1  0
 29  6  1  0
 25 11  1  0
 23 15  1  0
 23 18  1  0
M  END
$$$$
