
     RDKit          3D

 45 50  0  0  0  0  0  0  0  0999 V2000
   -9.1476   19.1748  -45.4630 C   0  0  0  0  0  0  0  0  0  0  0  0
  -10.1648   18.8479  -44.5713 O   0  0  0  0  0  0  0  0  0  0  0  0
   -9.7137   18.1681  -43.4519 C   0  0  0  0  0  0  0  0  0  0  0  0
  -10.8781   17.8837  -42.5081 C   0  0  0  0  0  0  0  0  0  0  0  0
  -10.3978   17.2354  -41.2996 N   0  0  0  0  0  0  0  0  0  0  0  0
  -10.9561   17.7423  -40.1072 C   0  0  0  0  0  0  0  0  0  0  0  0
  -12.3732   17.6896  -39.8921 C   0  0  0  0  0  0  0  0  0  0  0  0
  -13.0665   18.9051  -39.8401 C   0  0  0  0  0  0  0  0  0  0  0  0
  -14.4258   18.9419  -39.6718 C   0  0  0  0  0  0  0  0  0  0  0  0
  -15.1291   17.7380  -39.5504 C   0  0  0  0  0  0  0  0  0  0  0  0
  -16.5570   17.7515  -39.3481 C   0  0  0  0  0  0  0  0  0  0  0  0
  -17.5607   16.8899  -39.4792 C   0  0  0  0  0  0  0  0  0  0  0  0
  -18.8202   17.2587  -39.1935 C   0  0  0  0  0  0  0  0  0  0  0  0
  -19.9526   16.4632  -39.2703 N   0  0  0  0  0  0  0  0  0  0  0  0
  -21.1427   16.9213  -38.9469 C   0  0  0  0  0  0  0  0  0  0  0  0
  -21.4196   18.2140  -38.4999 C   0  0  0  0  0  0  0  0  0  0  0  0
  -20.3232   19.0448  -38.4084 C   0  0  0  0  0  0  0  0  0  0  0  0
  -20.3001   20.3206  -38.0001 O   0  0  0  0  0  0  0  0  0  0  0  0
  -21.2554   21.2022  -37.7114 C   0  0  0  0  0  0  0  0  0  0  0  0
  -21.2291   22.4250  -38.4404 C   0  0  0  0  0  0  0  0  0  0  0  0
  -22.1252   23.3996  -38.2595 C   0  0  0  0  0  0  0  0  0  0  0  0
  -23.1670   23.2846  -37.3329 C   0  0  0  0  0  0  0  0  0  0  0  0
  -24.0653   24.3685  -37.2039 N   0  0  0  0  0  0  0  0  0  0  0  0
  -24.1211   25.1495  -36.0204 C   0  0  0  0  0  0  0  0  0  0  0  0
  -23.4659   24.9138  -34.9877 O   0  0  0  0  0  0  0  0  0  0  0  0
  -25.0565   26.3289  -36.0203 C   0  0  0  0  0  0  0  0  0  0  0  0
  -26.4894   26.0073  -36.0796 C   0  0  0  0  0  0  0  0  0  0  0  0
  -27.3089   26.9657  -35.8787 O   0  0  0  0  0  0  0  0  0  0  0  0
  -27.0036   24.6840  -36.3584 N   0  0  0  0  0  0  0  0  0  0  0  0
  -28.4140   24.5340  -36.5371 C   0  0  0  0  0  0  0  0  0  0  0  0
  -28.8667   23.9410  -37.7334 C   0  0  0  0  0  0  0  0  0  0  0  0
  -30.2030   23.7487  -37.9669 C   0  0  0  0  0  0  0  0  0  0  0  0
  -31.1151   24.1410  -37.0158 C   0  0  0  0  0  0  0  0  0  0  0  0
  -32.4255   23.9224  -37.2585 F   0  0  0  0  0  0  0  0  0  0  0  0
  -30.7119   24.7223  -35.8324 C   0  0  0  0  0  0  0  0  0  0  0  0
  -29.3500   24.9048  -35.6242 C   0  0  0  0  0  0  0  0  0  0  0  0
  -24.7488   27.4245  -35.0232 C   0  0  0  0  0  0  0  0  0  0  0  0
  -24.4811   27.5902  -36.5333 C   0  0  0  0  0  0  0  0  0  0  0  0
  -23.2256   22.1219  -36.6112 C   0  0  0  0  0  0  0  0  0  0  0  0
  -22.2781   21.1171  -36.8182 C   0  0  0  0  0  0  0  0  0  0  0  0
  -22.3676   19.9840  -36.0612 F   0  0  0  0  0  0  0  0  0  0  0  0
  -19.0481   18.5187  -38.7698 C   0  0  0  0  0  0  0  0  0  0  0  0
  -17.4330   19.2591  -38.7622 S   0  0  0  0  0  0  0  0  0  0  0  0
  -14.4500   16.6089  -39.6047 N   0  0  0  0  0  0  0  0  0  0  0  0
  -13.1064   16.5529  -39.7701 C   0  0  0  0  0  0  0  0  0  0  0  0
  1  2  1  0
  2  3  1  0
  3  4  1  0
  4  5  1  0
  5  6  1  0
  6  7  1  0
  7  8  2  0
  8  9  1  0
  9 10  2  0
 10 11  1  0
 11 12  2  0
 12 13  1  0
 13 14  2  0
 14 15  1  0
 15 16  2  0
 16 17  1  0
 17 18  1  0
 18 19  1  0
 19 20  2  0
 20 21  1  0
 21 22  2  0
 22 23  1  0
 23 24  1  0
 24 25  2  0
 24 26  1  0
 26 27  1  0
 27 28  2  0
 27 29  1  0
 29 30  1  0
 30 31  2  0
 31 32  1  0
 32 33  2  0
 33 34  1  0
 33 35  1  0
 35 36  2  0
 26 37  1  0
 37 38  1  0
 22 39  1  0
 39 40  2  0
 40 41  1  0
 17 42  2  0
 42 43  1  0
 10 44  1  0
 44 45  2  0
 45  7  1  0
 43 11  1  0
 42 13  1  0
 40 19  1  0
 38 26  1  0
 36 30  1  0
M  END
$$$$
