
     RDKit          3D

 28 29  0  0  0  0  0  0  0  0999 V2000
  -31.2040   11.3164  -18.4127 C   0  0  0  0  0  0  0  0  0  0  0  0
  -31.9700   11.4868  -19.7106 C   0  0  0  0  0  0  0  0  0  0  0  0
  -33.4395   11.3439  -19.5609 C   0  0  0  0  0  0  0  0  0  0  0  0
  -31.3610   10.8030  -20.8194 N   0  0  0  0  0  4  0  0  0  0  0  0
  -32.0712   11.3350  -21.9951 C   0  0  0  0  0  0  0  0  0  0  0  0
  -30.0085   11.3821  -20.9311 C   0  0  0  0  0  0  0  0  0  0  0  0
  -29.9774   12.6112  -21.7706 C   0  0  0  0  0  0  0  0  0  0  0  0
  -28.6648   13.1061  -21.8366 O   0  0  0  0  0  0  0  0  0  0  0  0
  -27.8793   13.5521  -20.8221 C   0  0  0  0  0  0  0  0  0  0  0  0
  -28.3695   13.5329  -19.6643 O   0  0  0  0  0  0  0  0  0  0  0  0
  -26.4986   14.0605  -20.9440 C   0  0  0  0  0  0  0  0  0  0  0  0
  -25.5254   13.1651  -21.4755 C   0  0  0  0  0  0  0  0  0  0  0  0
  -25.2581   11.8959  -20.9200 C   0  0  0  0  0  0  0  0  0  0  0  0
  -24.3365   11.0358  -21.4147 C   0  0  0  0  0  0  0  0  0  0  0  0
  -23.5997   11.3746  -22.5139 C   0  0  0  0  0  0  0  0  0  0  0  0
  -23.8157   12.5928  -23.0948 C   0  0  0  0  0  0  0  0  0  0  0  0
  -24.7699   13.4678  -22.5720 C   0  0  0  0  0  0  0  0  0  0  0  0
  -24.8768   14.6653  -23.2670 O   0  0  0  0  0  0  0  0  0  0  0  0
  -25.8227   15.5734  -22.7766 C   0  0  0  0  0  0  0  0  0  0  0  0
  -25.9860   16.8045  -23.4284 C   0  0  0  0  0  0  0  0  0  0  0  0
  -26.8880   17.7434  -23.0108 C   0  0  0  0  0  0  0  0  0  0  0  0
  -27.6537   17.4569  -21.9134 C   0  0  0  0  0  0  0  0  0  0  0  0
  -27.5434   16.2769  -21.2342 C   0  0  0  0  0  0  0  0  0  0  0  0
  -26.6041   15.3288  -21.6894 C   0  0  0  0  0  0  0  0  0  0  0  0
  -31.4007    9.4049  -20.8487 C   0  0  0  0  0  0  0  0  0  0  0  0
  -32.1743    8.6858  -19.7970 C   0  0  0  0  0  0  0  0  0  0  0  0
  -30.0155    8.7379  -20.8984 C   0  0  0  0  0  0  0  0  0  0  0  0
  -28.9718   12.2821  -21.1533 Br  0  0  0  0  0 15  0  0  0  0  0  0
  1  2  1  0
  2  3  1  0
  2  4  1  0
  4  5  1  0
  4  6  1  0
  6  7  1  0
  7  8  1  0
  8  9  1  0
  9 10  2  0
  9 11  1  0
 11 12  1  0
 12 13  2  0
 13 14  1  0
 14 15  2  0
 15 16  1  0
 16 17  2  0
 17 18  1  0
 18 19  1  0
 19 20  2  0
 20 21  1  0
 21 22  2  0
 22 23  1  0
 23 24  2  0
  4 25  1  0
 25 26  1  0
 25 27  1  0
 24 11  1  0
 17 12  1  0
 24 19  1  0
M  CHG  2   4   1  28  -1
M  END
$$$$
