
     RDKit          3D

 14 16  0  0  0  0  0  0  0  0999 V2000
   -1.7889    8.2985  -40.9870 O   0  0  0  0  0  0  0  0  0  0  0  0
   -0.7735    8.2367  -40.2383 C   0  0  0  0  0  0  0  0  0  0  0  0
   -0.1820    6.9880  -40.1263 C   0  0  0  0  0  0  0  0  0  0  0  0
    0.9283    6.9154  -39.3089 C   0  0  0  0  0  0  0  0  0  0  0  0
    1.3975    8.0434  -38.6539 C   0  0  0  0  0  0  0  0  0  0  0  0
    2.5005    8.0164  -37.8299 C   0  0  0  0  0  0  0  0  0  0  0  0
    2.9747    9.1343  -37.1737 C   0  0  0  0  0  0  0  0  0  0  0  0
    4.0298    9.3772  -36.3137 C   0  0  0  0  0  0  0  0  0  0  0  0
    3.9904   10.7150  -35.9858 C   0  0  0  0  0  0  0  0  0  0  0  0
    2.9649   11.2170  -36.6245 O   0  0  0  0  0  0  0  0  0  0  0  0
    2.3254   10.3444  -37.3396 C   0  0  0  0  0  0  0  0  0  0  0  0
    1.2132   10.3728  -38.1702 C   0  0  0  0  0  0  0  0  0  0  0  0
    0.7508    9.2499  -38.8188 C   0  0  0  0  0  0  0  0  0  0  0  0
   -0.3144    9.2927  -39.6101 O   0  0  0  0  0  0  0  0  0  0  0  0
  1  2  2  0
  2  3  1  0
  3  4  2  0
  4  5  1  0
  5  6  2  0
  6  7  1  0
  7  8  1  0
  8  9  2  0
  9 10  1  0
 10 11  1  0
 11 12  1  0
 12 13  2  0
 13 14  1  0
 14  2  1  0
 13  5  1  0
 11  7  2  0
M  END
$$$$
