
     RDKit          3D

 31 35  0  0  0  0  0  0  0  0999 V2000
  -11.4387   40.5688  -13.7441 C   0  0  0  0  0  0  0  0  0  0  0  0
  -10.9316   40.9813  -14.9315 O   0  0  0  0  0  0  0  0  0  0  0  0
  -11.4986   42.0917  -15.4544 C   0  0  0  0  0  0  0  0  0  0  0  0
  -11.7590   42.0765  -16.9201 C   0  0  0  0  0  0  0  0  0  0  0  0
  -13.1081   42.0039  -17.2349 O   0  0  0  0  0  0  0  0  0  0  0  0
  -13.7465   42.9841  -17.9699 C   0  0  0  0  0  0  0  0  0  0  0  0
  -15.0557   42.8059  -18.3172 C   0  0  0  0  0  0  0  0  0  0  0  0
  -15.6841   43.7987  -19.0555 C   0  0  0  0  0  0  0  0  0  0  0  0
  -15.0367   44.9600  -19.4526 C   0  0  0  0  0  0  0  0  0  0  0  0
  -13.7054   45.0838  -19.0690 C   0  0  0  0  0  0  0  0  0  0  0  0
  -13.0515   44.1150  -18.3348 C   0  0  0  0  0  0  0  0  0  0  0  0
  -13.2845   46.2550  -19.5478 N   0  0  0  0  0  0  0  0  0  0  0  0
  -14.3146   46.8302  -20.2003 C   0  0  0  0  0  0  0  0  0  0  0  0
  -15.4061   46.0449  -20.1523 N   0  0  0  0  0  0  0  0  0  0  0  0
  -16.6973   46.2738  -20.7093 C   0  0  0  0  0  0  0  0  0  0  0  0
  -17.2153   47.5435  -20.8604 C   0  0  0  0  0  0  0  0  0  0  0  0
  -18.4510   47.7979  -21.3912 C   0  0  0  0  0  0  0  0  0  0  0  0
  -19.2294   46.7184  -21.8018 C   0  0  0  0  0  0  0  0  0  0  0  0
  -20.4843   46.9022  -22.3415 C   0  0  0  0  0  0  0  0  0  0  0  0
  -21.2103   45.8007  -22.7264 C   0  0  0  0  0  0  0  0  0  0  0  0
  -20.6701   44.5146  -22.5670 C   0  0  0  0  0  0  0  0  0  0  0  0
  -19.4212   44.2966  -22.0320 C   0  0  0  0  0  0  0  0  0  0  0  0
  -18.8283   43.0428  -21.8637 N   0  0  0  0  0  0  0  0  0  0  0  0
  -17.3903   42.9137  -21.7488 C   0  0  0  0  0  0  0  0  0  0  0  0
  -17.1044   42.4861  -20.3254 C   0  0  0  0  0  0  0  0  0  0  0  0
  -17.8194   41.1702  -20.0743 C   0  0  0  0  0  0  0  0  0  0  0  0
  -16.8222   40.1902  -19.7603 N   0  0  0  0  0  0  0  0  0  0  0  0
  -18.5673   40.7268  -21.2996 C   0  0  0  0  0  0  0  0  0  0  0  0
  -19.5553   41.7937  -21.7741 C   0  0  0  0  0  0  0  0  0  0  0  0
  -18.7121   45.4301  -21.6524 C   0  0  0  0  0  0  0  0  0  0  0  0
  -17.4910   45.2699  -21.1222 N   0  0  0  0  0  0  0  0  0  0  0  0
  1  2  1  0
  2  3  1  0
  3  4  1  0
  4  5  1  0
  5  6  1  0
  6  7  2  0
  7  8  1  0
  8  9  2  0
  9 10  1  0
 10 11  2  0
 10 12  1  0
 12 13  2  0
 13 14  1  0
 14 15  1  0
 15 16  2  0
 16 17  1  0
 17 18  2  0
 18 19  1  0
 19 20  2  0
 20 21  1  0
 21 22  2  0
 22 23  1  0
 23 24  1  0
 24 25  1  0
 25 26  1  0
 26 27  1  0
 26 28  1  0
 28 29  1  0
 22 30  1  0
 30 31  2  0
 11  6  1  0
 31 15  1  0
 14  9  1  0
 30 18  1  0
 29 23  1  0
M  END
$$$$
