
     RDKit          3D

 29 31  0  0  0  0  0  0  0  0999 V2000
  -18.5753   34.7473  -23.0513 C   0  0  0  0  0  0  0  0  0  0  0  0
  -19.0568   36.0879  -22.7073 C   0  0  0  0  0  0  0  0  0  0  0  0
  -18.2653   37.0785  -22.7964 N   0  0  0  0  0  0  0  0  0  0  0  0
  -18.6908   38.4125  -22.6538 N   0  0  0  0  0  0  0  0  0  0  0  0
  -17.6762   39.4003  -22.6062 C   0  0  0  0  0  0  0  0  0  0  0  0
  -16.4554   39.0811  -22.8115 O   0  0  0  0  0  0  0  0  0  0  0  0
  -17.9153   40.8024  -22.3328 C   0  0  0  0  0  0  0  0  0  0  0  0
  -18.7984   41.5594  -23.0725 C   0  0  0  0  0  0  0  0  0  0  0  0
  -19.0108   42.9003  -22.7912 C   0  0  0  0  0  0  0  0  0  0  0  0
  -18.3415   43.5192  -21.7582 C   0  0  0  0  0  0  0  0  0  0  0  0
  -17.4593   42.7767  -21.0138 C   0  0  0  0  0  0  0  0  0  0  0  0
  -16.5649   43.5009  -19.6744 S   0  0  0  0  0  6  0  0  0  0  0  0
  -17.5062   43.8753  -18.5667 O   0  0  0  0  0  0  0  0  0  0  0  0
  -15.5840   42.5140  -19.1068 O   0  0  0  0  0  0  0  0  0  0  0  0
  -15.7003   44.8882  -20.1879 N   0  0  0  0  0  0  0  0  0  0  0  0
  -16.1167   46.1043  -19.5974 C   0  0  0  0  0  0  0  0  0  0  0  0
  -15.2118   46.6978  -18.5773 C   0  0  0  0  0  0  0  0  0  0  0  0
  -13.8688   46.4212  -18.7632 O   0  0  0  0  0  0  0  0  0  0  0  0
  -13.5898   45.9820  -20.0553 C   0  0  0  0  0  0  0  0  0  0  0  0
  -14.2899   44.6469  -20.1982 C   0  0  0  0  0  0  0  0  0  0  0  0
  -17.2639   41.4408  -21.3130 C   0  0  0  0  0  0  0  0  0  0  0  0
  -20.4577   36.2351  -22.2658 C   0  0  0  0  0  0  0  0  0  0  0  0
  -20.7817   36.9490  -21.1357 C   0  0  0  0  0  0  0  0  0  0  0  0
  -22.0727   37.1120  -20.6875 C   0  0  0  0  0  0  0  0  0  0  0  0
  -22.3384   38.0469  -19.2322 Cl  0  0  0  0  0  0  0  0  0  0  0  0
  -23.0931   36.5313  -21.4063 C   0  0  0  0  0  0  0  0  0  0  0  0
  -22.8074   35.8116  -22.5393 C   0  0  0  0  0  0  0  0  0  0  0  0
  -21.4950   35.6577  -22.9769 C   0  0  0  0  0  0  0  0  0  0  0  0
  -21.2013   34.9233  -24.1334 O   0  0  0  0  0  0  0  0  0  0  0  0
  1  2  1  0
  2  3  2  0
  3  4  1  0
  4  5  1  0
  5  6  2  0
  5  7  1  0
  7  8  2  0
  8  9  1  0
  9 10  2  0
 10 11  1  0
 11 12  1  0
 12 13  2  0
 12 14  2  0
 12 15  1  0
 15 16  1  0
 16 17  1  0
 17 18  1  0
 18 19  1  0
 19 20  1  0
 11 21  2  0
  2 22  1  0
 22 23  2  0
 23 24  1  0
 24 25  1  0
 24 26  2  0
 26 27  1  0
 27 28  2  0
 28 29  1  0
 21  7  1  0
 28 22  1  0
 20 15  1  0
M  END
$$$$
