
     RDKit          3D

 27 30  0  0  0  0  0  0  0  0999 V2000
  -24.1189    2.7910  -31.1236 O   0  0  0  0  0  0  0  0  0  0  0  0
  -23.0314    3.4268  -31.2416 N   0  0  0  0  0  4  0  0  0  0  0  0
  -23.1019    4.7947  -31.2118 O   0  0  0  0  0  1  0  0  0  0  0  0
  -21.8218    2.6962  -31.3998 C   0  0  0  0  0  0  0  0  0  0  0  0
  -20.6227    3.3599  -31.5253 C   0  0  0  0  0  0  0  0  0  0  0  0
  -19.4262    2.7036  -31.6869 C   0  0  0  0  0  0  0  0  0  0  0  0
  -19.4187    1.3095  -31.7252 C   0  0  0  0  0  0  0  0  0  0  0  0
  -18.1268    0.6162  -31.9114 C   0  0  0  0  0  0  0  0  0  0  0  0
  -16.9430    1.2131  -32.0453 N   0  0  0  0  0  0  0  0  0  0  0  0
  -15.9715    0.3022  -32.1965 C   0  0  0  0  0  0  0  0  0  0  0  0
  -14.5363    0.5457  -32.3684 C   0  0  0  0  0  0  0  0  0  0  0  0
  -13.8279    1.3774  -31.5372 C   0  0  0  0  0  0  0  0  0  0  0  0
  -12.4641    1.5877  -31.7430 C   0  0  0  0  0  0  0  0  0  0  0  0
  -11.7937    0.9705  -32.7783 C   0  0  0  0  0  0  0  0  0  0  0  0
  -10.4684    1.1692  -32.9839 F   0  0  0  0  0  0  0  0  0  0  0  0
  -12.4968    0.1357  -33.6146 C   0  0  0  0  0  0  0  0  0  0  0  0
  -13.8449   -0.0597  -33.3969 C   0  0  0  0  0  0  0  0  0  0  0  0
  -16.6117   -0.9323  -32.1513 C   0  0  0  0  0  0  0  0  0  0  0  0
  -15.9901   -2.2411  -32.2625 C   0  0  0  0  0  0  0  0  0  0  0  0
  -16.5124   -3.1989  -33.0947 C   0  0  0  0  0  0  0  0  0  0  0  0
  -15.9188   -4.4481  -33.2176 C   0  0  0  0  0  0  0  0  0  0  0  0
  -14.8183   -4.7426  -32.5216 N   0  0  0  0  0  0  0  0  0  0  0  0
  -14.2681   -3.8351  -31.6912 C   0  0  0  0  0  0  0  0  0  0  0  0
  -14.8480   -2.5845  -31.5576 C   0  0  0  0  0  0  0  0  0  0  0  0
  -17.9234   -0.7014  -31.9767 N   0  0  0  0  0  0  0  0  0  0  0  0
  -20.6098    0.6310  -31.6006 C   0  0  0  0  0  0  0  0  0  0  0  0
  -21.8163    1.3139  -31.4373 C   0  0  0  0  0  0  0  0  0  0  0  0
  1  2  2  0
  2  3  1  0
  2  4  1  0
  4  5  2  0
  5  6  1  0
  6  7  2  0
  7  8  1  0
  8  9  2  0
  9 10  1  0
 10 11  1  0
 11 12  2  0
 12 13  1  0
 13 14  2  0
 14 15  1  0
 14 16  1  0
 16 17  2  0
 10 18  2  0
 18 19  1  0
 19 20  2  0
 20 21  1  0
 21 22  2  0
 22 23  1  0
 23 24  2  0
 18 25  1  0
  7 26  1  0
 26 27  2  0
 27  4  1  0
 25  8  1  0
 17 11  1  0
 24 19  1  0
M  CHG  2   2   1   3  -1
M  END
$$$$
