
     RDKit          3D

 36 40  0  0  0  0  0  0  0  0999 V2000
  -24.6456   35.6237  -26.2759 C   0  0  0  0  0  0  0  0  0  0  0  0
  -25.7233   34.8358  -26.9661 C   0  0  0  0  0  0  0  0  0  0  0  0
  -27.0013   34.9960  -26.1777 C   0  0  0  0  0  0  0  0  0  0  0  0
  -25.9501   35.4696  -28.3263 C   0  0  0  0  0  0  0  0  0  0  0  0
  -26.7270   34.5358  -29.2213 C   0  0  0  0  0  0  0  0  0  0  0  0
  -25.7941   33.3724  -29.5935 C   0  0  2  0  0  0  0  0  0  0  0  0
  -25.0056   33.9088  -30.7631 C   0  0  0  0  0  0  0  0  0  0  0  0
  -25.2769   33.6590  -31.9473 O   0  0  0  0  0  0  0  0  0  0  0  0
  -23.9138   34.7309  -30.4526 O   0  0  0  0  0  0  0  0  0  0  0  0
  -26.5591   32.1897  -30.0335 C   0  0  0  0  0  0  0  0  0  0  0  0
  -26.3985   30.9374  -29.2744 C   0  0  0  0  0  0  0  0  0  0  0  0
  -25.0694   30.6596  -28.6886 C   0  0  2  0  0  0  0  0  0  0  0  0
  -25.2304   30.2698  -27.2323 C   0  0  0  0  0  0  0  0  0  0  0  0
  -24.1483   31.8514  -28.7421 C   0  0  2  0  0  0  0  0  0  0  0  0
  -22.9658   31.5758  -27.9438 C   0  0  0  0  0  0  0  0  0  0  0  0
  -22.2672   32.4698  -27.3950 O   0  0  0  0  0  0  0  0  0  0  0  0
  -22.5610   30.1868  -27.7649 C   0  0  0  0  0  0  0  0  0  0  0  0
  -23.1872   29.1934  -28.4283 C   0  0  0  0  0  0  0  0  0  0  0  0
  -24.3070   29.5299  -29.3575 C   0  0  2  0  0  0  0  0  0  0  0  0
  -23.7188   29.9686  -30.6864 C   0  0  0  0  0  0  0  0  0  0  0  0
  -25.2179   28.3799  -29.6444 C   0  0  0  0  0  0  0  0  0  0  0  0
  -24.4365   27.0725  -29.7336 C   0  0  0  0  0  0  0  0  0  0  0  0
  -23.7419   26.8192  -28.4517 C   0  0  1  0  0  0  0  0  0  0  0  0
  -23.2631   25.3875  -28.3246 C   0  0  0  0  0  0  0  0  0  0  0  0
  -22.7894   24.7959  -29.6243 C   0  0  0  0  0  0  0  0  0  0  0  0
  -24.4336   24.5098  -27.8503 C   0  0  0  0  0  0  0  0  0  0  0  0
  -22.2439   25.2808  -27.2524 C   0  0  0  0  0  0  0  0  0  0  0  0
  -21.5103   24.2876  -27.1214 O   0  0  0  0  0  0  0  0  0  0  0  0
  -22.1151   26.3977  -26.3257 C   0  0  0  0  0  0  0  0  0  0  0  0
  -21.7476   26.1738  -24.9411 C   0  0  0  0  0  0  0  0  0  0  0  0
  -21.4681   26.0069  -23.8364 N   0  0  0  0  0  0  0  0  0  0  0  0
  -22.3214   27.6372  -26.7255 C   0  0  0  0  0  0  0  0  0  0  0  0
  -22.6901   27.8270  -28.1734 C   0  0  2  0  0  0  0  0  0  0  0  0
  -21.4059   27.5794  -28.9425 C   0  0  0  0  0  0  0  0  0  0  0  0
  -24.8125   33.1624  -28.4958 C   0  0  2  0  0  0  0  0  0  0  0  0
  -25.3550   33.3597  -27.1162 C   0  0  0  0  0  0  0  0  0  0  0  0
  1  2  1  0
  2  3  1  0
  2  4  1  0
  4  5  1  0
  5  6  1  0
  6  7  1  6
  7  8  2  0
  7  9  1  0
  6 10  1  0
 10 11  1  0
 11 12  1  0
 12 13  1  1
 12 14  1  0
 14 15  1  1
 15 16  2  0
 15 17  1  0
 17 18  2  0
 18 19  1  0
 19 20  1  6
 19 21  1  0
 21 22  1  0
 23 22  1  6
 23 24  1  0
 24 25  1  0
 24 26  1  0
 24 27  1  0
 27 28  2  0
 27 29  1  0
 29 30  1  0
 30 31  3  0
 29 32  2  0
 32 33  1  0
 33 34  1  6
 14 35  1  0
 35 36  1  1
 36  2  1  0
 35  6  1  0
 19 12  1  0
 33 23  1  0
 33 18  1  0
M  END
$$$$
