
     RDKit          3D

 29 31  0  0  0  0  0  0  0  0999 V2000
  -40.3695   11.3853  -32.5778 C   0  0  0  0  0  0  0  0  0  0  0  0
  -41.1644   10.3474  -32.3955 C   0  0  0  0  0  0  0  0  0  0  0  0
  -42.4753   10.2722  -33.1365 C   0  0  1  0  0  0  0  0  0  0  0  0
  -43.1230   11.6380  -32.8631 C   0  0  0  0  0  0  0  0  0  0  0  0
  -42.1124   10.2190  -34.5989 C   0  0  0  0  0  0  0  0  0  0  0  0
  -43.1112    9.4088  -35.3961 C   0  0  0  0  0  0  0  0  0  0  0  0
  -43.3816    9.8275  -36.4768 O   0  0  0  0  0  0  0  0  0  0  0  0
  -43.5943    8.2228  -34.7052 C   0  0  1  0  0  0  0  0  0  0  0  0
  -42.4426    7.4477  -34.3982 O   0  0  0  0  0  0  0  0  0  0  0  0
  -44.1570    8.6431  -33.3894 C   0  0  2  0  0  0  0  0  0  0  0  0
  -45.2892    9.5813  -33.4699 C   0  0  0  0  0  0  0  0  0  0  0  0
  -43.1442    9.2234  -32.6398 O   0  0  0  0  0  0  0  0  0  0  0  0
  -44.4552    7.3533  -32.6235 C   0  0  1  0  0  0  0  0  0  0  0  0
  -44.6900    7.5614  -31.2724 O   0  0  0  0  0  0  0  0  0  0  0  0
  -45.7273    8.2276  -30.6983 C   0  0  0  0  0  0  0  0  0  0  0  0
  -46.4303    9.3689  -31.3516 C   0  0  0  0  0  0  0  0  0  0  0  0
  -46.0764    7.8328  -29.5699 O   0  0  0  0  0  0  0  0  0  0  0  0
  -45.3871    6.4467  -33.3364 C   0  0  1  0  0  0  0  0  0  0  0  0
  -46.6766    6.8403  -33.4205 O   0  0  0  0  0  0  0  0  0  0  0  0
  -44.7321    6.0952  -34.6619 C   0  0  1  0  0  0  0  0  0  0  0  0
  -45.2830    4.8952  -35.3007 C   0  0  0  0  0  0  0  0  0  0  0  0
  -44.8141    3.6797  -34.4744 C   0  0  0  0  0  0  0  0  0  0  0  0
  -46.7651    4.7728  -35.3954 C   0  0  0  0  0  0  0  0  0  0  0  0
  -44.7079    4.7010  -36.6717 C   0  0  0  0  0  0  0  0  0  0  0  0
  -43.3619    5.3610  -36.7027 C   0  0  0  0  0  0  0  0  0  0  0  0
  -43.5803    6.8513  -36.6796 C   0  0  2  0  0  0  0  0  0  0  0  0
  -42.3244    7.4272  -36.6742 O   0  0  0  0  0  0  0  0  0  0  0  0
  -44.4623    7.2983  -35.5188 C   0  0  2  0  0  0  0  0  0  0  0  0
  -45.6827    7.9165  -36.0952 C   0  0  0  0  0  0  0  0  0  0  0  0
  1  2  2  0
  2  3  1  0
  3  4  1  6
  3  5  1  0
  5  6  1  0
  6  7  2  0
  6  8  1  0
  8  9  1  1
  8 10  1  0
 10 11  1  6
 10 12  1  0
 10 13  1  0
 13 14  1  1
 14 15  1  0
 15 16  1  0
 15 17  2  0
 13 18  1  0
 18 19  1  6
 18 20  1  0
 20 21  1  6
 21 22  1  0
 21 23  1  0
 21 24  1  0
 24 25  1  0
 25 26  1  0
 26 27  1  1
 26 28  1  0
 28 29  1  6
 12  3  1  0
 28 20  1  0
 28  8  1  0
M  END
$$$$
