
     RDKit          3D

 37 39  0  0  0  0  0  0  0  0999 V2000
  -19.0368   42.5757  -18.5008 C   0  0  0  0  0  0  0  0  0  0  0  0
  -19.1919   42.5414  -19.9984 C   0  0  0  0  0  0  0  0  0  0  0  0
  -19.0000   41.1659  -20.4306 N   0  0  0  0  0  0  0  0  0  0  0  0
  -20.1095   40.2474  -20.5125 C   0  0  0  0  0  0  0  0  0  0  0  0
  -20.0798   39.3369  -21.6951 C   0  0  0  0  0  0  0  0  0  0  0  0
  -18.8260   39.2359  -22.3782 N   0  0  0  0  0  0  0  0  0  0  0  0
  -18.7797   38.6574  -23.6829 C   0  0  0  0  0  0  0  0  0  0  0  0
  -17.6684   38.5612  -24.3078 O   0  0  0  0  0  0  0  0  0  0  0  0
  -19.9457   38.1734  -24.3300 N   0  0  0  0  0  0  0  0  0  0  0  0
  -19.8491   37.5958  -25.6578 C   0  0  1  0  0  0  0  0  0  0  0  0
  -20.2428   36.1718  -25.6672 C   0  0  0  0  0  0  0  0  0  0  0  0
  -20.1403   35.4987  -26.7197 O   0  0  0  0  0  0  0  0  0  0  0  0
  -20.7467   35.4979  -24.5165 N   0  0  0  0  0  0  0  0  0  0  0  0
  -21.1087   34.1159  -24.5968 C   0  0  2  0  0  0  0  0  0  0  0  0
  -22.3990   33.7228  -24.0126 C   0  0  0  0  0  0  0  0  0  0  0  0
  -23.5868   33.8685  -24.4655 O   0  0  0  0  0  0  0  0  0  0  0  0
  -21.7908   33.1787  -22.8644 N   0  0  0  0  0  0  0  0  0  0  0  0
  -21.5858   32.6453  -21.5486 C   0  0  1  0  0  0  0  0  0  0  0  0
  -21.0519   31.2684  -21.7026 C   0  0  0  0  0  0  0  0  0  0  0  0
  -19.8534   30.9694  -21.5582 O   0  0  0  0  0  0  0  0  0  0  0  0
  -21.9584   30.2699  -22.0269 O   0  0  0  0  0  1  0  0  0  0  0  0
  -20.5921   33.5505  -20.8452 C   0  0  0  0  0  0  0  0  0  0  0  0
  -21.2800   34.7273  -20.2171 C   0  0  0  0  0  0  0  0  0  0  0  0
  -19.7597   32.8423  -19.8291 C   0  0  0  0  0  0  0  0  0  0  0  0
  -19.5506   34.0706  -22.2647 S   0  0  0  0  0  0  0  0  0  0  0  0
  -20.5211   33.2088  -23.5589 C   0  0  2  0  0  0  0  0  0  0  0  0
  -20.6385   38.3844  -26.6342 C   0  0  0  0  0  0  0  0  0  0  0  0
  -21.5384   37.8986  -27.5383 C   0  0  0  0  0  0  0  0  0  0  0  0
  -22.2240   38.7460  -28.4223 C   0  0  0  0  0  0  0  0  0  0  0  0
  -22.0149   40.1057  -28.4113 C   0  0  0  0  0  0  0  0  0  0  0  0
  -21.1095   40.6093  -27.5035 C   0  0  0  0  0  0  0  0  0  0  0  0
  -20.4457   39.7729  -26.6455 C   0  0  0  0  0  0  0  0  0  0  0  0
  -17.6093   39.6959  -21.8096 C   0  0  0  0  0  0  0  0  0  0  0  0
  -16.4825   39.2381  -22.1804 O   0  0  0  0  0  0  0  0  0  0  0  0
  -17.6920   40.7316  -20.7644 C   0  0  0  0  0  0  0  0  0  0  0  0
  -16.6511   41.1672  -20.2376 O   0  0  0  0  0  0  0  0  0  0  0  0
  -20.1827   37.2964  -22.8661 Na  0  0  0  0  0 15  0  0  0  0  0  0
  1  2  1  0
  2  3  1  0
  3  4  1  0
  4  5  1  0
  5  6  1  0
  6  7  1  0
  7  8  2  0
  7  9  1  0
 10  9  1  1
 10 11  1  0
 11 12  2  0
 11 13  1  0
 14 13  1  1
 14 15  1  0
 15 16  2  0
 15 17  1  0
 17 18  1  0
 18 19  1  6
 19 20  2  0
 19 21  1  0
 18 22  1  0
 22 23  1  0
 22 24  1  0
 22 25  1  0
 26 25  1  1
 10 27  1  0
 27 28  2  0
 28 29  1  0
 29 30  2  0
 30 31  1  0
 31 32  2  0
  6 33  1  0
 33 34  2  0
 33 35  1  0
 35 36  2  0
 35  3  1  0
 26 14  1  0
 32 27  1  0
 26 17  1  0
M  CHG  2  21  -1  37   1
M  END
$$$$
