
     RDKit          3D

 34 37  0  0  0  0  0  0  0  0999 V2000
  -10.2790   17.7777  -37.2370 C   0  0  0  0  0  0  0  0  0  0  0  0
  -10.9643   18.6929  -38.0748 O   0  0  0  0  0  0  0  0  0  0  0  0
  -12.3408   18.5923  -38.2958 C   0  0  0  0  0  0  0  0  0  0  0  0
  -12.7901   18.5279  -39.5951 C   0  0  0  0  0  0  0  0  0  0  0  0
  -14.1612   18.4287  -39.7802 C   0  0  0  0  0  0  0  0  0  0  0  0
  -15.0287   18.3959  -38.7285 C   0  0  0  0  0  0  0  0  0  0  0  0
  -16.3852   18.3048  -38.6710 C   0  0  0  0  0  0  0  0  0  0  0  0
  -16.7541   18.3114  -37.3169 C   0  0  0  0  0  0  0  0  0  0  0  0
  -15.5888   18.4111  -36.6112 N   0  0  0  0  0  0  0  0  0  0  0  0
  -14.5408   18.4630  -37.4275 C   0  0  0  0  0  0  0  0  0  0  0  0
  -13.1751   18.5630  -37.1981 C   0  0  0  0  0  0  0  0  0  0  0  0
  -18.1767   18.2434  -36.9940 C   0  0  2  0  0  0  0  0  0  0  0  0
  -18.7257   16.8946  -36.8455 C   0  0  0  0  0  0  0  0  0  0  0  0
  -18.2015   16.0842  -35.7230 C   0  0  0  0  0  0  0  0  0  0  0  0
  -18.7405   14.6978  -35.6928 C   0  0  0  0  0  0  0  0  0  0  0  0
  -18.5341   16.7487  -34.3662 C   0  0  0  0  0  0  0  0  0  0  0  0
  -18.9605   19.0152  -37.9865 N   0  0  0  0  0  0  0  0  0  0  0  0
  -20.2720   19.4691  -37.6314 C   0  0  0  0  0  0  0  0  0  0  0  0
  -20.5904   19.6498  -36.4343 O   0  0  0  0  0  0  0  0  0  0  0  0
  -21.3063   19.7440  -38.6611 C   0  0  2  0  0  0  0  0  0  0  0  0
  -22.1746   18.5453  -38.9314 C   0  0  0  0  0  0  0  0  0  0  0  0
  -22.5470   17.7471  -37.7316 C   0  0  0  0  0  0  0  0  0  0  0  0
  -23.8154   18.1478  -37.0908 C   0  0  0  0  0  0  0  0  0  0  0  0
  -23.7876   18.6325  -35.9113 O   0  0  0  0  0  0  0  0  0  0  0  0
  -25.0720   18.0479  -37.6569 O   0  0  0  0  0  0  0  0  0  0  0  0
  -26.1420   18.9141  -37.3283 C   0  0  0  0  0  0  0  0  0  0  0  0
  -26.2801   20.0289  -38.3542 C   0  0  0  0  0  0  0  0  0  0  0  0
  -27.4524   18.1855  -37.2503 C   0  0  0  0  0  0  0  0  0  0  0  0
  -25.8574   19.5619  -35.9946 C   0  0  0  0  0  0  0  0  0  0  0  0
  -20.7170   20.1200  -39.9330 N   0  0  0  0  0  0  0  0  0  0  0  0
  -19.4680   19.5828  -40.2859 C   0  0  0  0  0  0  0  0  0  0  0  0
  -19.2029   19.3366  -41.4772 O   0  0  0  0  0  0  0  0  0  0  0  0
  -18.4520   19.3018  -39.2607 C   0  0  2  0  0  0  0  0  0  0  0  0
  -17.4461   18.2646  -39.7102 C   0  0  0  0  0  0  0  0  0  0  0  0
  1  2  1  0
  2  3  1  0
  3  4  2  0
  4  5  1  0
  5  6  2  0
  6  7  1  0
  7  8  2  0
  8  9  1  0
  9 10  1  0
 10 11  2  0
  8 12  1  0
 12 13  1  6
 13 14  1  0
 14 15  1  0
 14 16  1  0
 12 17  1  0
 17 18  1  0
 18 19  2  0
 18 20  1  0
 20 21  1  6
 21 22  1  0
 22 23  1  0
 23 24  2  0
 23 25  1  0
 25 26  1  0
 26 27  1  0
 26 28  1  0
 26 29  1  0
 20 30  1  0
 30 31  1  0
 31 32  2  0
 31 33  1  0
 33 34  1  6
 11  3  1  0
 33 17  1  0
 10  6  1  0
 34  7  1  0
M  END
$$$$
