
     RDKit          3D

 37 40  0  0  0  0  0  0  0  0999 V2000
  -21.2070   33.3770  -21.6053 C   0  0  0  0  0  0  0  0  0  0  0  0
  -21.8569   34.6289  -22.0742 C   0  0  0  0  0  0  0  0  0  0  0  0
  -23.0250   34.6040  -22.3749 O   0  0  0  0  0  0  0  0  0  0  0  0
  -21.0287   35.8647  -22.1512 C   0  0  2  0  0  0  0  0  0  0  0  0
  -19.7195   35.5917  -21.7423 O   0  0  0  0  0  0  0  0  0  0  0  0
  -21.6470   36.8400  -21.1712 C   0  0  0  0  0  0  0  0  0  0  0  0
  -20.8488   38.0647  -21.2551 C   0  0  0  0  0  0  0  0  0  0  0  0
  -20.2726   38.6501  -20.1951 C   0  0  0  0  0  0  0  0  0  0  0  0
  -20.4070   38.1510  -18.8860 O   0  0  0  0  0  0  0  0  0  0  0  0
  -19.5103   39.7829  -20.3320 C   0  0  0  0  0  0  0  0  0  0  0  0
  -19.3165   40.3526  -21.5785 C   0  0  0  0  0  0  0  0  0  0  0  0
  -19.9321   39.7180  -22.6674 C   0  0  0  0  0  0  0  0  0  0  0  0
  -19.6933   40.3437  -23.8918 O   0  0  0  0  0  0  0  0  0  0  0  0
  -20.6908   38.5968  -22.5511 C   0  0  0  0  0  0  0  0  0  0  0  0
  -21.3605   37.8881  -23.6579 C   0  0  1  0  0  0  0  0  0  0  0  0
  -21.0334   38.3479  -24.8898 O   0  0  0  0  0  0  0  0  0  0  0  0
  -22.1808   38.7011  -25.6515 C   0  0  1  0  0  0  0  0  0  0  0  0
  -22.0771   40.1620  -25.9752 C   0  0  0  0  0  0  0  0  0  0  0  0
  -23.1422   40.5268  -26.9868 C   0  0  2  0  0  0  0  0  0  0  0  0
  -24.4598   40.5521  -26.3969 N   0  0  0  0  0  0  0  0  0  0  0  0
  -23.0231   39.6174  -28.1596 C   0  0  2  0  0  0  0  0  0  0  0  0
  -24.1763   39.7963  -28.9550 O   0  0  0  0  0  0  0  0  0  0  0  0
  -22.9843   38.1571  -27.7780 C   0  0  2  0  0  0  0  0  0  0  0  0
  -24.3983   37.6874  -27.5740 C   0  0  0  0  0  0  0  0  0  0  0  0
  -22.1359   37.8726  -26.7534 O   0  0  0  0  0  0  0  0  0  0  0  0
  -21.0611   36.3965  -23.5289 C   0  0  0  0  0  0  0  0  0  0  0  0
  -18.5081   41.5544  -21.7450 C   0  0  0  0  0  0  0  0  0  0  0  0
  -18.3360   42.0610  -22.8600 O   0  0  0  0  0  0  0  0  0  0  0  0
  -17.9001   42.1561  -20.5730 C   0  0  0  0  0  0  0  0  0  0  0  0
  -17.1185   43.3095  -20.6964 C   0  0  0  0  0  0  0  0  0  0  0  0
  -16.5532   43.8594  -19.5643 C   0  0  0  0  0  0  0  0  0  0  0  0
  -16.7220   43.3228  -18.3041 C   0  0  0  0  0  0  0  0  0  0  0  0
  -17.4879   42.1924  -18.1825 C   0  0  0  0  0  0  0  0  0  0  0  0
  -18.0579   41.6334  -19.3041 C   0  0  0  0  0  0  0  0  0  0  0  0
  -18.8716   40.4311  -19.1696 C   0  0  0  0  0  0  0  0  0  0  0  0
  -19.0349   39.9312  -18.0333 O   0  0  0  0  0  0  0  0  0  0  0  0
  -20.5795   39.1554  -22.6377 Cl  0  0  0  0  0  0  0  0  0  0  0  0
  1  2  1  0
  2  3  2  0
  2  4  1  0
  4  5  1  1
  4  6  1  0
  6  7  1  0
  7  8  2  0
  8  9  1  0
  8 10  1  0
 10 11  2  0
 11 12  1  0
 12 13  1  0
 12 14  2  0
 14 15  1  0
 15 16  1  6
 17 16  1  1
 17 18  1  0
 18 19  1  0
 19 20  1  1
 19 21  1  0
 21 22  1  6
 21 23  1  0
 23 24  1  1
 23 25  1  0
 15 26  1  0
 11 27  1  0
 27 28  2  0
 27 29  1  0
 29 30  2  0
 30 31  1  0
 31 32  2  0
 32 33  1  0
 33 34  2  0
 34 35  1  0
 35 36  2  0
 26  4  1  0
 34 29  1  0
 14  7  1  0
 25 17  1  0
 35 10  1  0
M  END
$$$$
