
     RDKit          3D

 32 35  0  0  0  0  0  0  0  0999 V2000
  -19.9275   47.9617  -23.0513 O   0  0  0  0  0  0  0  0  0  0  0  0
  -19.4122   48.4753  -22.0615 C   0  0  0  0  0  0  0  0  0  0  0  0
  -19.6400   49.8219  -21.7453 N   0  0  0  0  0  0  0  0  0  0  0  0
  -20.0543   50.8503  -22.6343 C   0  0  0  0  0  0  0  0  0  0  0  0
  -20.1083   52.1722  -22.3285 C   0  0  0  0  0  0  0  0  0  0  0  0
  -20.5287   53.1241  -23.2654 C   0  0  0  0  0  0  0  0  0  0  0  0
  -20.8986   52.7255  -24.5287 C   0  0  0  0  0  0  0  0  0  0  0  0
  -20.8551   51.3786  -24.8754 C   0  0  0  0  0  0  0  0  0  0  0  0
  -20.4391   50.4877  -23.9300 C   0  0  0  0  0  0  0  0  0  0  0  0
  -18.5724   47.6281  -21.2552 N   0  0  0  0  0  0  0  0  0  0  0  0
  -18.8043   46.2279  -21.2498 C   0  0  0  0  0  0  0  0  0  0  0  0
  -18.6386   45.5074  -22.4204 C   0  0  0  0  0  0  0  0  0  0  0  0
  -18.8558   44.1453  -22.4486 C   0  0  0  0  0  0  0  0  0  0  0  0
  -19.2437   43.4486  -21.3230 C   0  0  0  0  0  0  0  0  0  0  0  0
  -19.4719   41.9952  -21.3698 C   0  0  0  0  0  0  0  0  0  0  0  0
  -18.4806   41.1229  -21.7657 C   0  0  0  0  0  0  0  0  0  0  0  0
  -18.7391   39.7731  -21.7928 C   0  0  0  0  0  0  0  0  0  0  0  0
  -19.9693   39.2188  -21.4367 C   0  0  0  0  0  0  0  0  0  0  0  0
  -20.2023   37.7981  -21.4953 C   0  0  0  0  0  0  0  0  0  0  0  0
  -21.0269   37.2943  -20.6500 O   0  0  0  0  0  0  0  0  0  0  0  0
  -19.5768   36.8656  -22.4416 C   0  0  2  0  0  0  0  0  0  0  0  0
  -20.4595   35.7443  -22.9052 C   0  0  0  0  0  0  0  0  0  0  0  0
  -19.4238   34.7566  -23.4674 C   0  0  0  0  0  0  0  0  0  0  0  0
  -18.3970   34.7498  -22.3577 C   0  0  0  0  0  0  0  0  0  0  0  0
  -18.3968   36.1564  -21.8027 C   0  0  1  0  0  0  0  0  0  0  0  0
  -17.1075   36.7876  -22.1019 C   0  0  0  0  0  0  0  0  0  0  0  0
  -16.0662   36.4708  -21.4572 O   0  0  0  0  0  0  0  0  0  0  0  0
  -16.9312   37.7524  -23.0849 O   0  0  0  0  0  0  0  0  0  0  0  0
  -20.9441   40.0938  -21.0465 C   0  0  0  0  0  0  0  0  0  0  0  0
  -20.6934   41.4704  -21.0144 C   0  0  0  0  0  0  0  0  0  0  0  0
  -19.4112   44.1584  -20.1528 C   0  0  0  0  0  0  0  0  0  0  0  0
  -19.1925   45.5220  -20.1297 C   0  0  0  0  0  0  0  0  0  0  0  0
  1  2  2  0
  2  3  1  0
  3  4  1  0
  4  5  2  0
  5  6  1  0
  6  7  2  0
  7  8  1  0
  8  9  2  0
  2 10  1  0
 10 11  1  0
 11 12  2  0
 12 13  1  0
 13 14  2  0
 14 15  1  0
 15 16  2  0
 16 17  1  0
 17 18  2  0
 18 19  1  0
 19 20  2  0
 21 19  1  1
 21 22  1  0
 22 23  1  0
 23 24  1  0
 24 25  1  0
 25 26  1  6
 26 27  2  0
 26 28  1  0
 18 29  1  0
 29 30  2  0
 14 31  1  0
 31 32  2  0
  9  4  1  0
 32 11  1  0
 30 15  1  0
 25 21  1  0
M  END
$$$$
