
     RDKit          3D

 20 20  0  0  0  0  0  0  0  0999 V2000
  -16.7678   19.0310  -33.7453 C   0  0  0  0  0  0  0  0  0  0  0  0
  -15.9089   18.2455  -34.5975 N   0  0  0  0  0  0  0  0  0  0  0  0
  -16.0826   18.5224  -36.0101 C   0  0  0  0  0  0  0  0  0  0  0  0
  -17.4342   18.0154  -36.4119 C   0  0  0  0  0  0  0  0  0  0  0  0
  -17.7123   18.2604  -37.9023 C   0  0  1  0  0  0  0  0  0  0  0  0
  -16.8526   17.6725  -38.7434 O   0  0  0  0  0  0  0  0  0  0  0  0
  -16.2492   17.7608  -39.9096 C   0  0  0  0  0  0  0  0  0  0  0  0
  -15.3132   16.7718  -40.2561 C   0  0  0  0  0  0  0  0  0  0  0  0
  -14.6340   16.7819  -41.4605 C   0  0  0  0  0  0  0  0  0  0  0  0
  -14.8696   17.7932  -42.3694 C   0  0  0  0  0  0  0  0  0  0  0  0
  -15.7837   18.7865  -42.0669 C   0  0  0  0  0  0  0  0  0  0  0  0
  -16.4550   18.7414  -40.8328 C   0  0  0  0  0  0  0  0  0  0  0  0
  -17.4484   19.7921  -40.5235 C   0  0  0  0  0  0  0  0  0  0  0  0
  -19.0511   17.5621  -38.1182 C   0  0  0  0  0  0  0  0  0  0  0  0
  -20.2064   18.2740  -38.2275 C   0  0  0  0  0  0  0  0  0  0  0  0
  -21.3773   17.5885  -38.4335 C   0  0  0  0  0  0  0  0  0  0  0  0
  -21.3739   16.1983  -38.5271 C   0  0  0  0  0  0  0  0  0  0  0  0
  -20.1905   15.5088  -38.4118 C   0  0  0  0  0  0  0  0  0  0  0  0
  -18.9846   16.1890  -38.2010 C   0  0  0  0  0  0  0  0  0  0  0  0
  -17.2006   18.0666  -38.9321 Cl  0  0  0  0  0  0  0  0  0  0  0  0
  1  2  1  0
  2  3  1  0
  3  4  1  0
  5  4  1  1
  5  6  1  0
  6  7  1  0
  7  8  2  0
  8  9  1  0
  9 10  2  0
 10 11  1  0
 11 12  2  0
 12 13  1  0
  5 14  1  0
 14 15  2  0
 15 16  1  0
 16 17  2  0
 17 18  1  0
 18 19  2  0
 12  7  1  0
 19 14  1  0
M  END
$$$$
