
     RDKit          3D

 17 19  0  0  0  0  0  0  0  0999 V2000
  -17.0587   44.5665  -20.0350 N   0  0  0  0  0  0  0  0  0  0  0  0
  -17.3243   43.2181  -19.6310 C   0  0  0  0  0  0  0  0  0  0  0  0
  -17.2073   42.8246  -18.3682 N   0  0  0  0  0  0  0  0  0  0  0  0
  -17.4587   41.5609  -18.0043 C   0  0  0  0  0  0  0  0  0  0  0  0
  -17.8385   40.6612  -18.9281 N   0  0  0  0  0  0  0  0  0  0  0  0
  -17.9843   40.9716  -20.2391 C   0  0  0  0  0  0  0  0  0  0  0  0
  -17.7189   42.2846  -20.5920 C   0  0  0  0  0  0  0  0  0  0  0  0
  -17.9280   42.3491  -21.9177 N   0  0  0  0  0  0  0  0  0  0  0  0
  -18.3028   41.1363  -22.3547 C   0  0  0  0  0  0  0  0  0  0  0  0
  -18.3429   40.2710  -21.3283 N   0  0  0  0  0  0  0  0  0  0  0  0
  -18.7007   38.8643  -21.3820 C   0  0  2  0  0  0  0  0  0  0  0  0
  -18.4392   38.2815  -22.7554 C   0  0  0  0  0  0  0  0  0  0  0  0
  -19.7898   37.8965  -23.3213 C   0  0  0  0  0  0  0  0  0  0  0  0
  -20.7010   38.8758  -22.5709 C   0  0  1  0  0  0  0  0  0  0  0  0
  -22.0320   38.4868  -22.6777 O   0  0  0  0  0  0  0  0  0  0  0  0
  -20.1673   38.6793  -21.1656 C   0  0  1  0  0  0  0  0  0  0  0  0
  -20.4096   37.3527  -20.8118 O   0  0  0  0  0  0  0  0  0  0  0  0
  1  2  1  0
  2  3  2  0
  3  4  1  0
  4  5  2  0
  5  6  1  0
  6  7  2  0
  7  8  1  0
  8  9  2  0
  9 10  1  0
 11 10  1  6
 11 12  1  0
 12 13  1  0
 13 14  1  0
 14 15  1  1
 14 16  1  0
 16 17  1  6
  7  2  1  0
 16 11  1  0
 10  6  1  0
M  END
$$$$
