
     RDKit          3D

 33 37  0  0  0  0  0  0  0  0999 V2000
  -18.7757   42.3472  -17.6203 N   0  0  0  0  0  0  0  0  0  0  0  0
  -19.2256   41.0618  -18.0058 C   0  0  0  0  0  0  0  0  0  0  0  0
  -19.6267   40.2037  -17.0545 N   0  0  0  0  0  0  0  0  0  0  0  0
  -20.0653   38.9605  -17.3539 C   0  0  0  0  0  0  0  0  0  0  0  0
  -20.1088   38.5499  -18.6504 N   0  0  0  0  0  0  0  0  0  0  0  0
  -19.7182   39.3674  -19.6596 C   0  0  0  0  0  0  0  0  0  0  0  0
  -19.2778   40.6236  -19.3217 C   0  0  0  0  0  0  0  0  0  0  0  0
  -18.9560   41.2263  -20.4568 N   0  0  0  0  0  0  0  0  0  0  0  0
  -19.1903   40.3631  -21.4851 C   0  0  0  0  0  0  0  0  0  0  0  0
  -18.9838   40.6273  -22.8707 N   0  0  0  0  0  0  0  0  0  0  0  0
  -18.6251   41.9317  -23.3897 C   0  0  0  0  0  0  0  0  0  0  0  0
  -17.4383   42.4855  -22.7151 C   0  0  0  0  0  0  0  0  0  0  0  0
  -16.3126   41.7286  -22.5280 C   0  0  0  0  0  0  0  0  0  0  0  0
  -15.1931   42.2464  -21.9098 C   0  0  0  0  0  0  0  0  0  0  0  0
  -15.1746   43.5610  -21.4553 C   0  0  0  0  0  0  0  0  0  0  0  0
  -13.9857   44.0848  -20.8174 C   0  0  0  0  0  0  0  0  0  0  0  0
  -14.1110   45.0897  -19.8785 C   0  0  0  0  0  0  0  0  0  0  0  0
  -12.9645   45.5613  -19.2871 C   0  0  0  0  0  0  0  0  0  0  0  0
  -11.7061   45.0999  -19.5675 C   0  0  0  0  0  0  0  0  0  0  0  0
  -11.5863   44.0859  -20.5157 C   0  0  0  0  0  0  0  0  0  0  0  0
  -12.7205   43.5984  -21.1210 C   0  0  0  0  0  0  0  0  0  0  0  0
  -16.3107   44.3090  -21.6489 C   0  0  0  0  0  0  0  0  0  0  0  0
  -17.4470   43.7823  -22.2765 C   0  0  0  0  0  0  0  0  0  0  0  0
  -19.6607   39.2130  -21.0135 N   0  0  0  0  0  0  0  0  0  0  0  0
  -20.0737   38.0051  -21.6310 C   0  0  2  0  0  0  0  0  0  0  0  0
  -19.2761   37.6405  -22.7392 O   0  0  0  0  0  0  0  0  0  0  0  0
  -19.8413   36.3682  -22.9923 C   0  0  2  0  0  0  0  0  0  0  0  0
  -19.3232   35.7720  -24.2651 C   0  0  0  0  0  0  0  0  0  0  0  0
  -18.8547   36.7632  -25.0941 O   0  0  0  0  0  0  0  0  0  0  0  0
  -21.3171   36.7480  -23.1395 C   0  0  1  0  0  0  0  0  0  0  0  0
  -22.1463   35.7096  -22.7383 O   0  0  0  0  0  0  0  0  0  0  0  0
  -21.4313   37.9636  -22.2022 C   0  0  1  0  0  0  0  0  0  0  0  0
  -22.3699   37.6161  -21.2358 O   0  0  0  0  0  0  0  0  0  0  0  0
  1  2  1  0
  2  3  2  0
  3  4  1  0
  4  5  2  0
  5  6  1  0
  6  7  2  0
  7  8  1  0
  8  9  2  0
  9 10  1  0
 10 11  1  0
 11 12  1  0
 12 13  2  0
 13 14  1  0
 14 15  2  0
 15 16  1  0
 16 17  2  0
 17 18  1  0
 18 19  2  0
 19 20  1  0
 20 21  2  0
 15 22  1  0
 22 23  2  0
  9 24  1  0
 25 24  1  6
 25 26  1  0
 26 27  1  0
 27 28  1  6
 28 29  1  0
 27 30  1  0
 30 31  1  1
 30 32  1  0
 32 33  1  1
  7  2  1  0
 23 12  1  0
 32 25  1  0
 24  6  1  0
 21 16  1  0
M  END
$$$$
