
     RDKit          3D

 49 52  0  0  0  0  0  0  0  0999 V2000
  -11.4980   48.2837  -15.3418 N   0  0  0  0  0  0  0  0  0  0  0  0
  -12.3148   47.6003  -16.2595 C   0  0  0  0  0  0  0  0  0  0  0  0
  -12.0279   46.4463  -16.6447 O   0  0  0  0  0  0  0  0  0  0  0  0
  -13.5157   48.2409  -16.7737 C   0  0  0  0  0  0  0  0  0  0  0  0
  -13.8345   49.5254  -16.3724 C   0  0  0  0  0  0  0  0  0  0  0  0
  -14.9675   50.0994  -16.8714 C   0  0  0  0  0  0  0  0  0  0  0  0
  -15.7538   49.3879  -17.7529 C   0  0  0  0  0  0  0  0  0  0  0  0
  -15.4381   48.1384  -18.1397 N   0  0  0  0  0  4  0  0  0  0  0  0
  -16.3307   47.4790  -19.0687 C   0  0  2  0  0  0  0  0  0  0  0  0
  -16.8650   46.3154  -18.5746 O   0  0  0  0  0  0  0  0  0  0  0  0
  -17.3983   45.6440  -19.6423 C   0  0  2  0  0  0  0  0  0  0  0  0
  -17.3073   44.1394  -19.4864 C   0  0  0  0  0  0  0  0  0  0  0  0
  -17.8501   43.4754  -20.5783 O   0  0  0  0  0  0  0  0  0  0  0  0
  -17.6986   41.8143  -20.4699 P   0  0  0  0  0  5  0  0  0  0  0  0
  -17.5090   41.2766  -21.8726 O   0  0  0  0  0  0  0  0  0  0  0  0
  -16.2869   41.3894  -19.6046 O   0  0  0  0  0  1  0  0  0  0  0  0
  -18.9909   41.0635  -19.7132 O   0  0  0  0  0  0  0  0  0  0  0  0
  -18.4632   39.5670  -19.0898 P   0  0  0  0  0  5  0  0  0  0  0  0
  -19.4491   39.0338  -18.0621 O   0  0  0  0  0  0  0  0  0  0  0  0
  -16.9887   39.7990  -18.3032 O   0  0  0  0  0  1  0  0  0  0  0  0
  -18.2648   38.5010  -20.3643 O   0  0  0  0  0  0  0  0  0  0  0  0
  -19.4206   38.2881  -21.0790 C   0  0  0  0  0  0  0  0  0  0  0  0
  -19.2559   37.2494  -22.1616 C   0  0  1  0  0  0  0  0  0  0  0  0
  -18.8744   36.0349  -21.5816 O   0  0  0  0  0  0  0  0  0  0  0  0
  -19.1578   35.0679  -22.5437 C   0  0  1  0  0  0  0  0  0  0  0  0
  -19.3762   33.7583  -22.0195 N   0  0  0  0  0  0  0  0  0  0  0  0
  -18.4914   32.7645  -22.0740 C   0  0  0  0  0  0  0  0  0  0  0  0
  -19.0255   31.6758  -21.4921 N   0  0  0  0  0  0  0  0  0  0  0  0
  -20.2734   31.9590  -21.0516 C   0  0  0  0  0  0  0  0  0  0  0  0
  -21.2376   31.2210  -20.4015 C   0  0  0  0  0  0  0  0  0  0  0  0
  -21.0260   29.8589  -20.0527 N   0  0  0  0  0  0  0  0  0  0  0  0
  -22.3993   31.8578  -20.1139 N   0  0  0  0  0  0  0  0  0  0  0  0
  -22.5858   33.1503  -20.4542 C   0  0  0  0  0  0  0  0  0  0  0  0
  -21.6503   33.8775  -21.0886 N   0  0  0  0  0  0  0  0  0  0  0  0
  -20.4577   33.2989  -21.4086 C   0  0  0  0  0  0  0  0  0  0  0  0
  -20.2908   35.5873  -23.3893 C   0  0  2  0  0  0  0  0  0  0  0  0
  -20.0367   35.5807  -24.7281 O   0  0  0  0  0  0  0  0  0  0  0  0
  -21.0327   34.5992  -25.6404 P   0  0  0  0  0  5  0  0  0  0  0  0
  -22.4623   34.5981  -25.1544 O   0  0  0  0  0  0  0  0  0  0  0  0
  -20.9231   34.9865  -27.2812 O   0  0  0  0  0  0  0  0  0  0  0  0
  -20.4620   33.0068  -25.4796 O   0  0  0  0  0  0  0  0  0  0  0  0
  -20.5982   36.8876  -22.7650 C   0  0  2  0  0  0  0  0  0  0  0  0
  -20.8426   37.9072  -23.7166 O   0  0  0  0  0  0  0  0  0  0  0  0
  -16.6898   46.0994  -20.9060 C   0  0  1  0  0  0  0  0  0  0  0  0
  -17.5109   46.9300  -21.6718 O   0  0  0  0  0  0  0  0  0  0  0  0
  -15.5881   46.9771  -20.2937 C   0  0  1  0  0  0  0  0  0  0  0  0
  -15.2119   47.9907  -21.1410 O   0  0  0  0  0  0  0  0  0  0  0  0
  -14.3349   47.5692  -17.6586 C   0  0  0  0  0  0  0  0  0  0  0  0
  -17.9582   40.5430  -20.5269 Na  0  0  0  0  0 15  0  0  0  0  0  0
  1  2  1  0
  2  3  2  0
  2  4  1  0
  4  5  2  0
  5  6  1  0
  6  7  2  0
  7  8  1  0
  9  8  1  1
  9 10  1  0
 10 11  1  0
 11 12  1  1
 12 13  1  0
 13 14  1  0
 14 15  2  0
 14 16  1  0
 14 17  1  0
 17 18  1  0
 18 19  2  0
 18 20  1  0
 18 21  1  0
 21 22  1  0
 23 22  1  1
 23 24  1  0
 24 25  1  0
 25 26  1  1
 26 27  1  0
 27 28  2  0
 28 29  1  0
 29 30  2  0
 30 31  1  0
 30 32  1  0
 32 33  2  0
 33 34  1  0
 34 35  2  0
 25 36  1  0
 36 37  1  6
 37 38  1  0
 38 39  2  0
 38 40  1  0
 38 41  1  0
 36 42  1  0
 42 43  1  6
 11 44  1  0
 44 45  1  6
 44 46  1  0
 46 47  1  6
  8 48  2  0
 48  4  1  0
 46  9  1  0
 42 23  1  0
 35 26  1  0
 35 29  1  0
M  CHG  4   8   1  16  -1  20  -1  49   1
M  END
$$$$
