
     RDKit          3D

 16 16  0  0  0  0  0  0  0  0999 V2000
  -12.8146   13.3081  -26.2461 C   0  0  0  0  0  0  0  0  0  0  0  0
  -14.1824   12.7342  -26.4662 C   0  0  0  0  0  0  0  0  0  0  0  0
  -14.1569   11.2418  -26.0475 C   0  0  0  0  0  0  0  0  0  0  0  0
  -14.7299   12.7808  -27.7423 N   0  0  0  0  0  0  0  0  0  0  0  0
  -16.0800   12.7133  -28.0512 C   0  0  0  0  0  0  0  0  0  0  0  0
  -16.7736   14.0135  -28.1763 C   0  0  2  0  0  0  0  0  0  0  0  0
  -18.1172   13.8883  -27.8728 O   0  0  0  0  0  0  0  0  0  0  0  0
  -16.7069   14.5977  -29.5729 C   0  0  0  0  0  0  0  0  0  0  0  0
  -17.5076   15.7441  -29.7180 O   0  0  0  0  0  0  0  0  0  0  0  0
  -17.4414   16.4218  -30.9271 C   0  0  0  0  0  0  0  0  0  0  0  0
  -17.2014   15.7527  -32.1206 C   0  0  0  0  0  0  0  0  0  0  0  0
  -17.1312   16.4022  -33.3358 C   0  0  0  0  0  0  0  0  0  0  0  0
  -17.3033   17.7850  -33.4047 C   0  0  0  0  0  0  0  0  0  0  0  0
  -17.2360   18.4539  -34.6186 O   0  0  0  0  0  0  0  0  0  0  0  0
  -17.5410   18.4565  -32.2312 C   0  0  0  0  0  0  0  0  0  0  0  0
  -17.6086   17.7980  -31.0264 C   0  0  0  0  0  0  0  0  0  0  0  0
  1  2  1  0
  2  3  1  0
  2  4  1  0
  4  5  1  0
  5  6  1  0
  6  7  1  6
  6  8  1  0
  8  9  1  0
  9 10  1  0
 10 11  2  0
 11 12  1  0
 12 13  2  0
 13 14  1  0
 13 15  1  0
 15 16  2  0
 16 10  1  0
M  END
$$$$
