
     RDKit          3D

 29 31  0  0  0  0  0  0  0  0999 V2000
  -16.2832   20.7573  -45.7610 C   0  0  0  0  0  0  0  0  0  0  0  0
  -16.0875   20.1680  -44.4148 C   0  0  0  0  0  0  0  0  0  0  0  0
  -17.2551   20.1476  -43.5006 C   0  0  0  0  0  0  0  0  0  0  0  0
  -17.0794   19.5805  -42.1478 C   0  0  0  0  0  0  0  0  0  0  0  0
  -18.2637   19.5634  -41.2345 C   0  0  0  0  0  0  0  0  0  0  0  0
  -17.7668   18.9379  -39.9097 C   0  0  0  0  0  0  0  0  0  0  0  0
  -18.8517   18.8174  -38.9130 C   0  0  0  0  0  0  0  0  0  0  0  0
  -18.4560   18.3470  -37.5690 C   0  0  0  0  0  0  0  0  0  0  0  0
  -17.2846   18.0025  -37.3398 O   0  0  0  0  0  0  0  0  0  0  0  0
  -19.3781   18.2661  -36.4869 N   0  0  0  0  0  0  0  0  0  0  0  0
  -19.1889   17.3574  -35.3766 C   0  0  2  0  0  0  0  0  0  0  0  0
  -18.2762   16.2248  -35.7621 C   0  0  0  0  0  0  0  0  0  0  0  0
  -16.8911   16.4826  -35.5477 N   0  0  0  0  0  0  0  0  0  0  0  0
  -16.1122   16.7410  -36.7244 C   0  0  0  0  0  0  0  0  0  0  0  0
  -15.1777   17.9008  -36.3582 C   0  0  0  0  0  0  0  0  0  0  0  0
  -16.1637   18.7424  -35.5357 C   0  0  0  0  0  0  0  0  0  0  0  0
  -16.7960   17.6556  -34.6848 C   0  0  0  0  0  0  0  0  0  0  0  0
  -20.5229   16.8541  -34.8701 C   0  0  2  0  0  0  0  0  0  0  0  0
  -21.4700   16.7654  -35.8813 O   0  0  0  0  0  0  0  0  0  0  0  0
  -21.0615   17.6170  -33.7470 C   0  0  0  0  0  0  0  0  0  0  0  0
  -22.3042   18.1931  -33.8017 C   0  0  0  0  0  0  0  0  0  0  0  0
  -22.7404   18.9073  -32.6871 C   0  0  0  0  0  0  0  0  0  0  0  0
  -21.9828   19.0462  -31.5686 C   0  0  0  0  0  0  0  0  0  0  0  0
  -20.7196   18.4639  -31.5062 C   0  0  0  0  0  0  0  0  0  0  0  0
  -20.2895   17.7577  -32.6087 C   0  0  0  0  0  0  0  0  0  0  0  0
  -19.9574   18.6108  -30.3672 O   0  0  0  0  0  0  0  0  0  0  0  0
  -20.1712   19.5433  -29.3492 C   0  0  0  0  0  0  0  0  0  0  0  0
  -21.3329   20.4218  -29.6637 C   0  0  0  0  0  0  0  0  0  0  0  0
  -22.3526   19.7449  -30.4195 O   0  0  0  0  0  0  0  0  0  0  0  0
  1  2  1  0
  2  3  1  0
  3  4  1  0
  4  5  1  0
  5  6  1  0
  6  7  1  0
  7  8  1  0
  8  9  2  0
  8 10  1  0
 10 11  1  0
 11 12  1  6
 12 13  1  0
 13 14  1  0
 14 15  1  0
 15 16  1  0
 16 17  1  0
 11 18  1  0
 18 19  1  6
 18 20  1  0
 20 21  2  0
 21 22  1  0
 22 23  2  0
 23 24  1  0
 24 25  2  0
 24 26  1  0
 26 27  1  0
 27 28  1  0
 28 29  1  0
 17 13  1  0
 25 20  1  0
 29 23  1  0
M  END
$$$$
