
     RDKit          3D

 21 23  0  0  0  0  0  0  0  0999 V2000
  -16.5395   41.1587  -20.8423 O   0  0  0  0  0  0  0  0  0  0  0  0
  -17.4067   42.0546  -21.1496 C   0  0  0  0  0  0  0  0  0  0  0  0
  -16.8985   43.3371  -21.4040 N   0  0  0  0  0  0  0  0  0  0  0  0
  -15.4745   43.6596  -21.3324 C   0  0  0  0  0  0  0  0  0  0  0  0
  -15.0073   43.9637  -19.9680 C   0  0  0  0  0  0  0  0  0  0  0  0
  -15.4652   44.9678  -19.1629 C   0  0  0  0  0  0  0  0  0  0  0  0
  -14.9558   45.1899  -17.8800 C   0  0  0  0  0  0  0  0  0  0  0  0
  -13.9550   44.3843  -17.3796 C   0  0  0  0  0  0  0  0  0  0  0  0
  -13.4833   43.3689  -18.1779 C   0  0  0  0  0  0  0  0  0  0  0  0
  -13.9951   43.1622  -19.4406 C   0  0  0  0  0  0  0  0  0  0  0  0
  -12.4855   42.7209  -17.4272 O   0  0  0  0  0  0  0  0  0  0  0  0
  -12.6731   43.0346  -16.0584 C   0  0  0  0  0  0  0  0  0  0  0  0
  -13.2522   44.3422  -16.1758 O   0  0  0  0  0  0  0  0  0  0  0  0
  -18.7764   41.6191  -21.1935 C   0  0  0  0  0  0  0  0  0  0  0  0
  -19.7742   41.9819  -20.3262 C   0  0  0  0  0  0  0  0  0  0  0  0
  -19.4551   42.9875  -18.9591 Cl  0  0  0  0  0  0  0  0  0  0  0  0
  -21.0958   41.5306  -20.4825 C   0  0  0  0  0  0  0  0  0  0  0  0
  -21.4502   40.6963  -21.5210 C   0  0  0  0  0  0  0  0  0  0  0  0
  -20.4722   40.3224  -22.3945 C   0  0  0  0  0  0  0  0  0  0  0  0
  -19.1840   40.7692  -22.2340 C   0  0  0  0  0  0  0  0  0  0  0  0
  -17.9583   40.2704  -23.3827 Cl  0  0  0  0  0  0  0  0  0  0  0  0
  1  2  2  0
  2  3  1  0
  3  4  1  0
  4  5  1  0
  5  6  2  0
  6  7  1  0
  7  8  2  0
  8  9  1  0
  9 10  2  0
  9 11  1  0
 11 12  1  0
 12 13  1  0
  2 14  1  0
 14 15  2  0
 15 16  1  0
 15 17  1  0
 17 18  2  0
 18 19  1  0
 19 20  2  0
 20 21  1  0
 10  5  1  0
 20 14  1  0
 13  8  1  0
M  END
$$$$
