
     RDKit          3D

 37 40  0  0  0  0  0  0  0  0999 V2000
  -15.3317   21.2089  -45.2226 C   0  0  0  0  0  0  0  0  0  0  0  0
  -15.8738   22.2494  -44.3829 N   0  0  0  0  0  0  0  0  0  0  0  0
  -16.7588   22.0228  -43.2946 C   0  0  0  0  0  0  0  0  0  0  0  0
  -16.7741   22.9259  -42.2310 C   0  0  0  0  0  0  0  0  0  0  0  0
  -17.5996   22.7489  -41.1604 C   0  0  0  0  0  0  0  0  0  0  0  0
  -18.4433   21.6387  -41.1369 C   0  0  0  0  0  0  0  0  0  0  0  0
  -18.4611   20.7277  -42.1575 C   0  0  0  0  0  0  0  0  0  0  0  0
  -19.2374   19.5574  -42.2294 N   0  0  0  0  0  0  0  0  0  0  0  0
  -18.9710   18.3696  -41.5048 C   0  0  0  0  0  0  0  0  0  0  0  0
  -18.6715   17.2989  -42.0692 O   0  0  0  0  0  0  0  0  0  0  0  0
  -19.0299   18.3135  -40.0581 N   0  0  0  0  0  0  0  0  0  0  0  0
  -18.4336   19.3354  -39.2791 C   0  0  2  0  0  0  0  0  0  0  0  0
  -17.0894   18.9951  -38.8364 N   0  0  0  0  0  0  0  0  0  0  0  0
  -16.8203   18.1367  -37.8817 C   0  0  0  0  0  0  0  0  0  0  0  0
  -15.4100   17.9753  -37.6207 C   0  0  0  0  0  0  0  0  0  0  0  0
  -14.8057   16.9157  -37.0162 C   0  0  0  0  0  0  0  0  0  0  0  0
  -13.4278   16.8101  -36.8801 C   0  0  0  0  0  0  0  0  0  0  0  0
  -12.6203   17.7999  -37.3620 C   0  0  0  0  0  0  0  0  0  0  0  0
  -13.2296   18.8823  -37.9758 C   0  0  0  0  0  0  0  0  0  0  0  0
  -14.5547   18.9413  -38.0853 N   0  0  0  0  0  0  0  0  0  0  0  0
  -17.7596   17.2994  -37.1294 C   0  0  0  0  0  0  0  0  0  0  0  0
  -17.2634   16.0628  -36.8424 C   0  0  0  0  0  0  0  0  0  0  0  0
  -18.0472   15.2311  -36.0748 C   0  0  0  0  0  0  0  0  0  0  0  0
  -19.3000   15.6232  -35.6048 C   0  0  0  0  0  0  0  0  0  0  0  0
  -19.8007   16.8690  -35.8992 C   0  0  0  0  0  0  0  0  0  0  0  0
  -19.0203   17.6980  -36.6663 C   0  0  0  0  0  0  0  0  0  0  0  0
  -19.6753   18.9303  -37.0028 N   0  0  0  0  0  0  0  0  0  0  0  0
  -20.7385   19.3462  -36.1609 C   0  0  0  0  0  0  0  0  0  0  0  0
  -21.9800   19.7935  -36.8717 C   0  0  0  0  0  0  0  0  0  0  0  0
  -22.1425   20.9101  -37.2615 O   0  0  0  0  0  0  0  0  0  0  0  0
  -23.0203   18.7680  -37.0751 C   0  0  0  0  0  0  0  0  0  0  0  0
  -22.4196   17.6261  -37.8779 C   0  0  0  0  0  0  0  0  0  0  0  0
  -24.2255   19.3209  -37.8150 C   0  0  0  0  0  0  0  0  0  0  0  0
  -23.5173   18.3011  -35.7314 C   0  0  0  0  0  0  0  0  0  0  0  0
  -19.2923   19.7480  -38.1419 C   0  0  0  0  0  0  0  0  0  0  0  0
  -19.7580   20.9070  -38.1172 O   0  0  0  0  0  0  0  0  0  0  0  0
  -17.5947   20.9569  -43.2322 C   0  0  0  0  0  0  0  0  0  0  0  0
  1  2  1  0
  2  3  1  0
  3  4  2  0
  4  5  1  0
  5  6  2  0
  6  7  1  0
  7  8  1  0
  8  9  1  0
  9 10  2  0
  9 11  1  0
 12 11  1  1
 12 13  1  0
 13 14  2  0
 14 15  1  0
 15 16  2  0
 16 17  1  0
 17 18  2  0
 18 19  1  0
 19 20  2  0
 14 21  1  0
 21 22  2  0
 22 23  1  0
 23 24  2  0
 24 25  1  0
 25 26  2  0
 26 27  1  0
 27 28  1  0
 28 29  1  0
 29 30  2  0
 29 31  1  0
 31 32  1  0
 31 33  1  0
 31 34  1  0
 27 35  1  0
 35 36  2  0
  7 37  2  0
 37  3  1  0
 35 12  1  0
 20 15  1  0
 26 21  1  0
M  END
$$$$
