
     RDKit          3D

 24 28  0  0  0  0  0  0  0  0999 V2000
  -19.8939   43.6463  -16.8743 O   0  0  0  0  0  0  0  0  0  0  0  0
  -19.9543   42.7612  -17.7792 C   0  0  0  0  0  0  0  0  0  0  0  0
  -21.1379   42.0445  -18.0458 N   0  0  0  0  0  0  0  0  0  0  0  0
  -21.1464   41.0822  -19.0530 N   0  0  0  0  0  0  0  0  0  0  0  0
  -19.9891   40.7783  -19.8477 C   0  0  0  0  0  0  0  0  0  0  0  0
  -20.0458   39.8399  -20.8100 N   0  0  0  0  0  0  0  0  0  0  0  0
  -18.9530   39.5712  -21.5413 C   0  0  0  0  0  0  0  0  0  0  0  0
  -18.8965   38.5610  -22.6255 C   0  0  0  0  0  0  0  0  0  0  0  0
  -18.8907   39.2401  -23.8891 N   0  0  0  0  0  0  0  0  0  0  0  0
  -17.8746   40.2544  -23.9601 C   0  0  0  0  0  0  0  0  0  0  0  0
  -18.4612   41.4022  -24.6873 C   0  0  0  0  0  0  0  0  0  0  0  0
  -17.8777   42.5449  -25.1435 C   0  0  0  0  0  0  0  0  0  0  0  0
  -18.6491   43.4928  -25.8099 C   0  0  0  0  0  0  0  0  0  0  0  0
  -19.9877   43.2747  -26.0043 C   0  0  0  0  0  0  0  0  0  0  0  0
  -20.5490   42.0894  -25.5210 C   0  0  0  0  0  0  0  0  0  0  0  0
  -19.8099   41.1545  -24.8687 C   0  0  0  0  0  0  0  0  0  0  0  0
  -20.1406   39.8210  -24.2560 C   0  0  0  0  0  0  0  0  0  0  0  0
  -17.8347   40.2632  -21.2738 N   0  0  0  0  0  0  0  0  0  0  0  0
  -17.7304   41.2027  -20.3299 C   0  0  0  0  0  0  0  0  0  0  0  0
  -16.5782   41.9028  -20.0678 C   0  0  0  0  0  0  0  0  0  0  0  0
  -16.5008   42.8690  -19.0848 C   0  0  0  0  0  0  0  0  0  0  0  0
  -17.6134   43.1592  -18.3228 C   0  0  0  0  0  0  0  0  0  0  0  0
  -18.7789   42.4602  -18.5783 C   0  0  0  0  0  0  0  0  0  0  0  0
  -18.8441   41.4942  -19.5661 C   0  0  0  0  0  0  0  0  0  0  0  0
  1  2  2  0
  2  3  1  0
  3  4  1  0
  4  5  1  0
  5  6  1  0
  6  7  2  0
  7  8  1  0
  8  9  1  0
  9 10  1  0
 10 11  1  0
 11 12  2  0
 12 13  1  0
 13 14  2  0
 14 15  1  0
 15 16  2  0
 16 17  1  0
  7 18  1  0
 18 19  2  0
 19 20  1  0
 20 21  2  0
 21 22  1  0
 22 23  2  0
 23 24  1  0
 23  2  1  0
 24  5  2  0
 17  9  1  0
 24 19  1  0
 16 11  1  0
M  END
$$$$
