
     RDKit          3D

 21 23  0  0  0  0  0  0  0  0999 V2000
  -18.8828   15.0632  -28.3997 C   0  0  0  0  0  0  0  0  0  0  0  0
  -18.7045   14.0685  -29.5094 C   0  0  0  0  0  0  0  0  0  0  0  0
  -17.8915   14.6630  -30.5704 N   0  0  0  0  0  0  0  0  0  0  0  0
  -18.4689   15.3238  -31.6003 C   0  0  0  0  0  0  0  0  0  0  0  0
  -19.7304   15.4245  -31.6389 O   0  0  0  0  0  0  0  0  0  0  0  0
  -17.6548   15.8688  -32.5800 C   0  0  0  0  0  0  0  0  0  0  0  0
  -18.2152   16.5420  -33.6319 C   0  0  0  0  0  0  0  0  0  0  0  0
  -17.3558   17.0719  -34.5913 C   0  0  0  0  0  0  0  0  0  0  0  0
  -17.9368   17.7895  -35.7144 C   0  0  0  0  0  0  0  0  0  0  0  0
  -19.3342   18.0191  -35.7848 N   0  0  0  0  0  0  0  0  0  0  0  0
  -17.2147   18.2225  -36.6480 O   0  0  0  0  0  0  0  0  0  0  0  0
  -15.9816   16.9183  -34.4771 C   0  0  0  0  0  0  0  0  0  0  0  0
  -15.1783   17.4907  -35.5006 N   0  0  0  0  0  0  0  0  0  0  0  0
  -15.4690   16.2512  -33.4302 N   0  0  0  0  0  0  0  0  0  0  0  0
  -16.2844   15.7278  -32.4861 C   0  0  0  0  0  0  0  0  0  0  0  0
  -15.7388   15.0767  -31.4689 N   0  0  0  0  0  0  0  0  0  0  0  0
  -14.3178   14.8820  -31.2915 C   0  0  0  0  0  0  0  0  0  0  0  0
  -13.7543   13.6618  -32.0528 C   0  0  0  0  0  0  0  0  0  0  0  0
  -13.7777   13.7140  -30.5634 C   0  0  0  0  0  0  0  0  0  0  0  0
  -16.5537   14.5518  -30.5223 C   0  0  0  0  0  0  0  0  0  0  0  0
  -16.0643   13.9283  -29.5449 O   0  0  0  0  0  0  0  0  0  0  0  0
  1  2  1  0
  2  3  1  0
  3  4  1  0
  4  5  2  0
  4  6  1  0
  6  7  2  0
  7  8  1  0
  8  9  1  0
  9 10  1  0
  9 11  2  0
  8 12  2  0
 12 13  1  0
 12 14  1  0
 14 15  2  0
 15 16  1  0
 16 17  1  0
 17 18  1  0
 18 19  1  0
 16 20  1  0
 20 21  2  0
 20  3  1  0
 15  6  1  0
 19 17  1  0
M  END
$$$$
