
     RDKit          3D

 19 21  0  0  0  0  0  0  0  0999 V2000
  -20.9504   33.3434  -21.8133 O   0  0  0  0  0  0  0  0  0  0  0  0
  -20.5249   34.5160  -21.9716 C   0  0  0  0  0  0  0  0  0  0  0  0
  -19.0463   34.7610  -21.8186 C   0  0  0  0  0  0  0  0  0  0  0  0
  -18.9195   36.1681  -21.2646 C   0  0  0  0  0  0  0  0  0  0  0  0
  -19.4292   37.1143  -22.3541 C   0  0  0  0  0  0  0  0  0  0  0  0
  -19.0096   38.4251  -22.0104 N   0  0  0  0  0  0  0  0  0  0  0  0
  -19.3691   39.1818  -20.8774 C   0  0  0  0  0  0  0  0  0  0  0  0
  -20.1437   38.7767  -19.9818 O   0  0  0  0  0  0  0  0  0  0  0  0
  -18.6951   40.4704  -20.9457 C   0  0  0  0  0  0  0  0  0  0  0  0
  -18.7054   41.5661  -20.0976 C   0  0  0  0  0  0  0  0  0  0  0  0
  -17.9756   42.7104  -20.3622 C   0  0  0  0  0  0  0  0  0  0  0  0
  -17.2168   42.7494  -21.5112 C   0  0  0  0  0  0  0  0  0  0  0  0
  -17.2085   41.6573  -22.3535 C   0  0  0  0  0  0  0  0  0  0  0  0
  -17.9255   40.5143  -22.1078 C   0  0  0  0  0  0  0  0  0  0  0  0
  -18.1224   39.2199  -22.7849 C   0  0  0  0  0  0  0  0  0  0  0  0
  -17.5546   38.9492  -23.8725 O   0  0  0  0  0  0  0  0  0  0  0  0
  -20.8648   36.9217  -22.4823 C   0  0  0  0  0  0  0  0  0  0  0  0
  -21.6130   37.8850  -22.7557 O   0  0  0  0  0  0  0  0  0  0  0  0
  -21.3895   35.6196  -22.2901 N   0  0  0  0  0  0  0  0  0  0  0  0
  1  2  2  0
  2  3  1  0
  3  4  1  0
  4  5  1  0
  5  6  1  0
  6  7  1  0
  7  8  2  0
  7  9  1  0
  9 10  2  0
 10 11  1  0
 11 12  2  0
 12 13  1  0
 13 14  2  0
 14 15  1  0
 15 16  2  0
  5 17  1  0
 17 18  2  0
 17 19  1  0
 19  2  1  0
 15  6  1  0
 14  9  1  0
M  END
$$$$
