
     RDKit          3D

 30 33  0  0  0  0  0  0  0  0999 V2000
  -32.1537   13.4233  -21.2455 O   0  0  0  0  0  0  0  0  0  0  0  0
  -31.6258   12.4971  -20.5839 C   0  0  0  0  0  0  0  0  0  0  0  0
  -30.2801   12.1823  -20.8414 N   0  0  0  0  0  0  0  0  0  0  0  0
  -29.4859   12.7214  -21.8889 C   0  0  0  0  0  0  0  0  0  0  0  0
  -28.9902   11.9506  -22.9169 C   0  0  0  0  0  0  0  0  0  0  0  0
  -28.2080   12.4760  -23.9486 C   0  0  0  0  0  0  0  0  0  0  0  0
  -27.9381   13.8290  -23.9074 C   0  0  0  0  0  0  0  0  0  0  0  0
  -28.4190   14.6277  -22.8932 C   0  0  0  0  0  0  0  0  0  0  0  0
  -28.1023   16.0132  -22.9131 N   0  0  0  0  0  0  0  0  0  0  0  0
  -26.8136   16.4884  -22.6400 C   0  0  0  0  0  0  0  0  0  0  0  0
  -26.5717   17.8000  -22.5309 N   0  0  0  0  0  0  0  0  0  0  0  0
  -25.3366   18.2816  -22.2662 C   0  0  0  0  0  0  0  0  0  0  0  0
  -24.2933   17.4054  -22.1025 C   0  0  0  0  0  0  0  0  0  0  0  0
  -22.5334   18.0296  -21.7289 Br  0  0  0  0  0  0  0  0  0  0  0  0
  -24.5391   16.0443  -22.2144 C   0  0  0  0  0  0  0  0  0  0  0  0
  -23.4586   15.1548  -22.0395 N   0  0  0  0  0  0  0  0  0  0  0  0
  -23.6712   13.7342  -22.1368 C   0  0  0  0  0  0  0  0  0  0  0  0
  -24.3392   13.2217  -20.8899 C   0  0  0  0  0  0  0  0  0  0  0  0
  -23.4611   13.3368  -19.7015 C   0  0  0  0  0  0  0  0  0  0  0  0
  -23.6382   14.1897  -18.6413 C   0  0  0  0  0  0  0  0  0  0  0  0
  -22.6320   13.9804  -17.7865 N   0  0  0  0  0  0  0  0  0  0  0  0
  -21.8283   13.0166  -18.2858 C   0  0  0  0  0  0  0  0  0  0  0  0
  -22.3368   12.6176  -19.4666 N   0  0  0  0  0  0  0  0  0  0  0  0
  -25.8036   15.6294  -22.4820 N   0  0  0  0  0  0  0  0  0  0  0  0
  -29.1905   14.0884  -21.8827 C   0  0  0  0  0  0  0  0  0  0  0  0
  -32.4211   11.8245  -19.6162 N   0  0  0  0  0  0  0  0  0  0  0  0
  -32.0176   10.7189  -18.7837 C   0  0  0  0  0  0  0  0  0  0  0  0
  -32.5262   11.1596  -17.4227 C   0  0  0  0  0  0  0  0  0  0  0  0
  -33.6524   12.1445  -17.7166 C   0  0  0  0  0  0  0  0  0  0  0  0
  -33.8005   12.0895  -19.2423 C   0  0  0  0  0  0  0  0  0  0  0  0
  1  2  2  0
  2  3  1  0
  3  4  1  0
  4  5  2  0
  5  6  1  0
  6  7  2  0
  7  8  1  0
  8  9  1  0
  9 10  1  0
 10 11  2  0
 11 12  1  0
 12 13  2  0
 13 14  1  0
 13 15  1  0
 15 16  1  0
 16 17  1  0
 17 18  1  0
 18 19  1  0
 19 20  2  0
 20 21  1  0
 21 22  1  0
 22 23  2  0
 15 24  2  0
  8 25  2  0
  2 26  1  0
 26 27  1  0
 27 28  1  0
 28 29  1  0
 29 30  1  0
 25  4  1  0
 30 26  1  0
 24 10  1  0
 23 19  1  0
M  END
$$$$
