
     RDKit          3D

 30 33  0  0  0  0  0  0  0  0999 V2000
  -13.2872    1.9818  -29.6599 C   0  0  0  0  0  0  0  0  0  0  0  0
  -12.8615    1.3109  -30.8094 O   0  0  0  0  0  0  0  0  0  0  0  0
  -13.7349    1.0168  -31.8406 C   0  0  0  0  0  0  0  0  0  0  0  0
  -13.7380    1.6766  -33.0486 C   0  0  0  0  0  0  0  0  0  0  0  0
  -14.6362    1.3487  -34.0631 C   0  0  0  0  0  0  0  0  0  0  0  0
  -15.5554    0.3379  -33.8706 C   0  0  0  0  0  0  0  0  0  0  0  0
  -15.5546   -0.3224  -32.6663 C   0  0  0  0  0  0  0  0  0  0  0  0
  -14.6705    0.0000  -31.6665 C   0  0  0  0  0  0  0  0  0  0  0  0
  -16.5489   -1.2703  -32.7245 C   0  0  0  0  0  0  0  0  0  0  0  0
  -16.8828   -2.2152  -31.6411 C   0  0  0  0  0  0  0  0  0  0  0  0
  -15.8868   -3.3461  -31.6093 C   0  0  0  0  0  0  0  0  0  0  0  0
  -15.0868   -3.5348  -32.5348 O   0  0  0  0  0  0  0  0  0  0  0  0
  -15.8956   -4.1859  -30.4876 N   0  0  0  0  0  0  0  0  0  0  0  0
  -16.7998   -4.0198  -29.3616 C   0  0  0  0  0  0  0  0  0  0  0  0
  -17.5894   -5.2899  -29.1604 C   0  0  0  0  0  0  0  0  0  0  0  0
  -17.1154   -6.3225  -29.9571 O   0  0  0  0  0  0  0  0  0  0  0  0
  -15.7372   -6.4785  -29.9159 C   0  0  0  0  0  0  0  0  0  0  0  0
  -14.9750   -5.2897  -30.4086 C   0  0  0  0  0  0  0  0  0  0  0  0
  -17.1419   -1.1593  -33.9879 C   0  0  0  0  0  0  0  0  0  0  0  0
  -18.3240   -2.0079  -34.3287 C   0  0  0  0  0  0  0  0  0  0  0  0
  -16.5396   -0.1901  -34.6806 N   0  0  0  0  0  0  0  0  0  0  0  0
  -16.7484    0.1866  -36.0144 C   0  0  0  0  0  0  0  0  0  0  0  0
  -17.5238   -0.5926  -36.7257 O   0  0  0  0  0  0  0  0  0  0  0  0
  -16.2471    1.3137  -36.7546 C   0  0  0  0  0  0  0  0  0  0  0  0
  -16.3237    2.6023  -36.1925 C   0  0  0  0  0  0  0  0  0  0  0  0
  -15.7731    3.6706  -36.8278 C   0  0  0  0  0  0  0  0  0  0  0  0
  -15.1250    3.4890  -38.0490 C   0  0  0  0  0  0  0  0  0  0  0  0
  -14.3981    4.8312  -38.9057 Cl  0  0  0  0  0  0  0  0  0  0  0  0
  -15.0579    2.2142  -38.5880 C   0  0  0  0  0  0  0  0  0  0  0  0
  -15.6098    1.1185  -37.9585 C   0  0  0  0  0  0  0  0  0  0  0  0
  1  2  1  0
  2  3  1  0
  3  4  2  0
  4  5  1  0
  5  6  2  0
  6  7  1  0
  7  8  2  0
  7  9  1  0
  9 10  1  0
 10 11  1  0
 11 12  2  0
 11 13  1  0
 13 14  1  0
 14 15  1  0
 15 16  1  0
 16 17  1  0
 17 18  1  0
  9 19  2  0
 19 20  1  0
 19 21  1  0
 21 22  1  0
 22 23  2  0
 22 24  1  0
 24 25  2  0
 25 26  1  0
 26 27  2  0
 27 28  1  0
 27 29  1  0
 29 30  2  0
  8  3  1  0
 18 13  1  0
 30 24  1  0
 21  6  1  0
M  END
$$$$
