
     RDKit          3D

 18 18  0  0  0  0  0  0  0  0999 V2000
  -21.6577   27.6981  -28.0053 N   0  0  0  0  0  0  0  0  0  0  0  0
  -22.3872   26.5464  -28.3015 C   0  0  0  0  0  0  0  0  0  0  0  0
  -21.8593   25.7490  -29.1494 O   0  0  0  0  0  0  0  0  0  0  0  0
  -23.6791   26.1573  -27.7510 C   0  0  2  0  0  0  0  0  0  0  0  0
  -23.4770   25.6082  -26.2517 C   0  0  0  0  0  0  0  0  0  0  0  0
  -24.3697   24.3857  -26.0746 C   0  0  0  0  0  0  0  0  0  0  0  0
  -24.1384   23.2098  -26.9587 C   0  0  2  0  0  0  0  0  0  0  0  0
  -23.1949   23.8007  -28.0794 C   0  0  0  0  0  0  0  0  0  0  0  0
  -24.1788   24.9247  -28.2273 N   0  0  0  0  0  0  0  0  0  0  0  0
  -25.2976   24.2248  -28.6475 C   0  0  0  0  0  0  0  0  0  0  0  0
  -26.1302   24.5732  -29.4979 O   0  0  0  0  0  0  0  0  0  0  0  0
  -25.2944   22.9683  -27.8615 N   0  0  0  0  0  0  0  0  0  0  0  0
  -26.1121   21.9409  -27.9675 O   0  0  0  0  0  0  0  0  0  0  0  0
  -27.2798   22.0803  -29.1199 S   0  0  0  0  0  6  0  0  0  0  0  0
  -28.0491   20.7658  -29.1573 O   0  0  0  0  0  0  0  0  0  0  0  0
  -28.2963   23.1445  -28.8333 O   0  0  0  0  0  0  0  0  0  0  0  0
  -26.6138   22.2595  -30.6643 O   0  0  0  0  0  1  0  0  0  0  0  0
  -24.2871   24.6098  -27.7518 Na  0  0  0  0  0 15  0  0  0  0  0  0
  1  2  1  0
  2  3  2  0
  4  2  1  6
  4  5  1  0
  5  6  1  0
  7  6  1  1
  7  8  1  0
  8  9  1  0
  9 10  1  0
 10 11  2  0
 10 12  1  0
 12 13  1  0
 13 14  1  0
 14 15  2  0
 14 16  2  0
 14 17  1  0
  9  4  1  0
 12  7  1  0
M  CHG  2  17  -1  18   1
M  END
$$$$
