
     RDKit          3D

 20 22  0  0  0  0  0  0  0  0999 V2000
  -21.3905   17.5995  -32.7603 C   0  0  0  0  0  0  0  0  0  0  0  0
  -20.2619   18.2089  -32.0317 C   0  0  0  0  0  0  0  0  0  0  0  0
  -20.4994   19.3064  -31.2345 C   0  0  0  0  0  0  0  0  0  0  0  0
  -21.7904   19.7960  -31.1507 C   0  0  0  0  0  0  0  0  0  0  0  0
  -21.9774   20.8886  -30.3483 C   0  0  0  0  0  0  0  0  0  0  0  0
  -20.9504   21.4464  -29.6824 N   0  0  0  0  0  0  0  0  0  0  0  0
  -19.6800   20.9533  -29.7737 C   0  0  0  0  0  0  0  0  0  0  0  0
  -19.4243   19.8603  -30.5604 C   0  0  0  0  0  0  0  0  0  0  0  0
  -18.1532   19.3281  -30.6840 C   0  0  0  0  0  0  0  0  0  0  0  0
  -17.0028   19.8907  -29.9769 C   0  0  0  0  0  0  0  0  0  0  0  0
  -17.9204   18.2108  -31.4981 C   0  0  0  0  0  0  0  0  0  0  0  0
  -19.0041   17.6691  -32.1646 C   0  0  0  0  0  0  0  0  0  0  0  0
  -18.5594   16.6245  -32.8757 N   0  0  0  0  0  0  0  0  0  0  0  0
  -17.2281   16.4638  -32.6992 C   0  0  0  0  0  0  0  0  0  0  0  0
  -16.3288   15.5549  -33.2033 C   0  0  0  0  0  0  0  0  0  0  0  0
  -15.0146   15.6349  -32.8452 C   0  0  0  0  0  0  0  0  0  0  0  0
  -14.5955   16.6239  -31.9822 C   0  0  0  0  0  0  0  0  0  0  0  0
  -15.4843   17.5471  -31.4645 C   0  0  0  0  0  0  0  0  0  0  0  0
  -16.8058   17.4631  -31.8271 C   0  0  0  0  0  0  0  0  0  0  0  0
  -17.9631   17.8996  -31.6999 Cl  0  0  0  0  0  0  0  0  0  0  0  0
  1  2  1  0
  2  3  2  0
  3  4  1  0
  4  5  2  0
  5  6  1  0
  6  7  2  0
  7  8  1  0
  8  9  2  0
  9 10  1  0
  9 11  1  0
 11 12  2  0
 12 13  1  0
 13 14  1  0
 14 15  2  0
 15 16  1  0
 16 17  2  0
 17 18  1  0
 18 19  2  0
 12  2  1  0
 19 14  1  0
  8  3  1  0
 19 11  1  0
M  END
$$$$
