
     RDKit          3D

 31 35  0  0  0  0  0  0  0  0999 V2000
  -20.3722   41.4326  -18.4997 C   0  0  0  0  0  0  0  0  0  0  0  0
  -20.8733   41.5020  -19.7934 O   0  0  0  0  0  0  0  0  0  0  0  0
  -20.2336   40.5652  -20.5605 C   0  0  0  0  0  0  0  0  0  0  0  0
  -20.7467   40.3801  -21.9463 C   0  0  1  0  0  0  0  0  0  0  0  0
  -20.8611   41.6626  -22.6562 O   0  0  0  0  0  0  0  0  0  0  0  0
  -19.6567   42.3302  -22.9708 C   0  0  0  0  0  0  0  0  0  0  0  0
  -19.5684   43.5627  -23.1465 O   0  0  0  0  0  0  0  0  0  0  0  0
  -18.4640   41.5050  -23.0905 C   0  0  0  0  0  0  0  0  0  0  0  0
  -17.1021   41.6880  -23.2132 C   0  0  0  0  0  0  0  0  0  0  0  0
  -16.4946   40.5057  -23.0926 O   0  0  0  0  0  0  0  0  0  0  0  0
  -17.3854   39.5494  -22.8979 C   0  0  0  0  0  0  0  0  0  0  0  0
  -18.5909   40.1555  -22.9032 C   0  0  0  0  0  0  0  0  0  0  0  0
  -19.9148   39.4911  -22.7938 C   0  0  2  0  0  0  0  0  0  0  0  0
  -20.5244   39.7115  -24.2375 C   0  0  0  0  0  0  0  0  0  0  0  0
  -19.8302   38.0651  -22.5591 C   0  0  0  0  0  0  0  0  0  0  0  0
  -18.6304   37.4223  -22.5124 C   0  0  0  0  0  0  0  0  0  0  0  0
  -17.3485   38.1182  -22.6897 C   0  0  0  0  0  0  0  0  0  0  0  0
  -16.2756   37.4958  -22.6609 O   0  0  0  0  0  0  0  0  0  0  0  0
  -18.5767   35.9960  -22.2203 C   0  0  2  0  0  0  0  0  0  0  0  0
  -17.5079   35.2030  -22.9141 C   0  0  0  0  0  0  0  0  0  0  0  0
  -18.0512   33.7602  -22.8349 C   0  0  0  0  0  0  0  0  0  0  0  0
  -19.4774   33.9069  -22.4600 C   0  0  0  0  0  0  0  0  0  0  0  0
  -20.1920   33.0555  -22.0152 O   0  0  0  0  0  0  0  0  0  0  0  0
  -19.8098   35.3088  -22.7527 C   0  0  2  0  0  0  0  0  0  0  0  0
  -19.9454   35.5775  -24.2254 C   0  0  0  0  0  0  0  0  0  0  0  0
  -20.9265   35.8842  -21.9230 C   0  0  0  0  0  0  0  0  0  0  0  0
  -21.0870   37.2988  -22.4782 C   0  0  1  0  0  0  0  0  0  0  0  0
  -22.2082   37.9201  -21.9933 O   0  0  0  0  0  0  0  0  0  0  0  0
  -23.4288   37.2656  -21.7520 C   0  0  0  0  0  0  0  0  0  0  0  0
  -24.0108   37.0671  -20.4099 C   0  0  0  0  0  0  0  0  0  0  0  0
  -24.0229   36.8427  -22.7618 O   0  0  0  0  0  0  0  0  0  0  0  0
  1  2  1  0
  2  3  1  0
  4  3  1  1
  4  5  1  0
  5  6  1  0
  6  7  2  0
  6  8  1  0
  8  9  2  0
  9 10  1  0
 10 11  1  0
 11 12  2  0
 12 13  1  0
 13 14  1  6
 13 15  1  0
 15 16  2  0
 16 17  1  0
 17 18  2  0
 16 19  1  0
 19 20  1  6
 20 21  1  0
 21 22  1  0
 22 23  2  0
 22 24  1  0
 24 25  1  6
 24 26  1  0
 26 27  1  0
 27 28  1  1
 28 29  1  0
 29 30  1  0
 29 31  2  0
 13  4  1  0
 27 15  1  0
 12  8  1  0
 24 19  1  0
 17 11  1  0
M  END
$$$$
