
     RDKit          3D

 13 14  0  0  0  0  0  0  0  0999 V2000
  -21.2151   40.6606  -20.6728 O   0  0  0  0  0  0  0  0  0  0  0  0
  -20.5261   39.6312  -20.9350 C   0  0  0  0  0  0  0  0  0  0  0  0
  -20.9294   38.2880  -20.5378 C   0  0  0  0  0  0  0  0  0  0  0  0
  -20.1810   37.2348  -20.8307 C   0  0  0  0  0  0  0  0  0  0  0  0
  -18.9306   37.4381  -21.5660 C   0  0  0  0  0  0  0  0  0  0  0  0
  -18.2227   36.4420  -21.8431 O   0  0  0  0  0  0  0  0  0  0  0  0
  -18.5021   38.7695  -21.9760 C   0  0  0  0  0  0  0  0  0  0  0  0
  -17.3199   38.9535  -22.6702 C   0  0  0  0  0  0  0  0  0  0  0  0
  -16.5394   37.8460  -22.9746 O   0  0  0  0  0  0  0  0  0  0  0  0
  -16.9077   40.2227  -23.0632 C   0  0  0  0  0  0  0  0  0  0  0  0
  -17.6828   41.3214  -22.7608 C   0  0  0  0  0  0  0  0  0  0  0  0
  -18.8607   41.1096  -22.0656 C   0  0  0  0  0  0  0  0  0  0  0  0
  -19.2826   39.8624  -21.6699 C   0  0  0  0  0  0  0  0  0  0  0  0
  1  2  2  0
  2  3  1  0
  3  4  2  0
  4  5  1  0
  5  6  2  0
  5  7  1  0
  7  8  2  0
  8  9  1  0
  8 10  1  0
 10 11  2  0
 11 12  1  0
 12 13  2  0
 13  2  1  0
 13  7  1  0
M  END
$$$$
