
     RDKit          3D

 27 29  0  0  0  0  0  0  0  0999 V2000
  -18.9473   -4.6986  -25.1891 C   0  0  0  0  0  0  0  0  0  0  0  0
  -18.1204   -4.3858  -26.3905 C   0  0  0  0  0  0  0  0  0  0  0  0
  -18.0178   -5.3069  -27.4119 C   0  0  0  0  0  0  0  0  0  0  0  0
  -17.2759   -5.0052  -28.4708 N   0  0  0  0  0  0  0  0  0  0  0  0
  -16.5982   -3.8460  -28.6348 C   0  0  0  0  0  0  0  0  0  0  0  0
  -15.8512   -3.6636  -29.8113 N   0  0  0  0  0  0  0  0  0  0  0  0
  -15.2690   -2.4732  -30.2519 C   0  0  0  0  0  0  0  0  0  0  0  0
  -15.3528   -1.4261  -29.5719 O   0  0  0  0  0  0  0  0  0  0  0  0
  -14.5644   -2.4396  -31.4973 N   0  0  0  0  0  0  0  0  0  0  0  0
  -14.0836   -1.2316  -32.0192 C   0  0  0  0  0  0  0  0  0  0  0  0
  -13.8609   -0.1397  -31.2175 C   0  0  0  0  0  0  0  0  0  0  0  0
  -13.3872    1.0183  -31.7944 C   0  0  0  0  0  0  0  0  0  0  0  0
  -13.0590    2.5734  -30.7185 Br  0  0  0  0  0  0  0  0  0  0  0  0
  -13.1309    1.1117  -33.1517 C   0  0  0  0  0  0  0  0  0  0  0  0
  -12.6202    2.3744  -33.7464 C   0  0  0  0  0  0  0  0  0  0  0  0
  -13.3623    0.0018  -33.9364 C   0  0  0  0  0  0  0  0  0  0  0  0
  -13.8327   -1.1645  -33.3958 C   0  0  0  0  0  0  0  0  0  0  0  0
  -14.0511   -2.2530  -34.2169 O   0  0  0  0  0  0  0  0  0  0  0  0
  -12.9550   -2.8228  -34.8928 C   0  0  0  0  0  0  0  0  0  0  0  0
  -13.1609   -4.2904  -35.1854 C   0  0  2  0  0  0  0  0  0  0  0  0
  -11.9815   -4.7330  -36.0444 C   0  0  0  0  0  0  0  0  0  0  0  0
  -11.9821   -6.1726  -36.0986 N   0  0  0  0  0  0  0  0  0  0  0  0
  -13.2936   -6.6035  -36.5195 C   0  0  0  0  0  0  0  0  0  0  0  0
  -14.2011   -5.4456  -36.8514 C   0  0  0  0  0  0  0  0  0  0  0  0
  -14.3485   -4.5527  -35.8182 O   0  0  0  0  0  0  0  0  0  0  0  0
  -16.7010   -2.9375  -27.6245 C   0  0  0  0  0  0  0  0  0  0  0  0
  -17.4606   -3.2230  -26.5191 N   0  0  0  0  0  0  0  0  0  0  0  0
  1  2  1  0
  2  3  2  0
  3  4  1  0
  4  5  2  0
  5  6  1  0
  6  7  1  0
  7  8  2  0
  7  9  1  0
  9 10  1  0
 10 11  2  0
 11 12  1  0
 12 13  1  0
 12 14  2  0
 14 15  1  0
 14 16  1  0
 16 17  2  0
 17 18  1  0
 18 19  1  0
 20 19  1  6
 20 21  1  0
 21 22  1  0
 22 23  1  0
 23 24  1  0
 24 25  1  0
  5 26  1  0
 26 27  2  0
 27  2  1  0
 17 10  1  0
 25 20  1  0
M  END
$$$$
