
     RDKit          3D

 24 25  0  0  0  0  0  0  0  0999 V2000
  -22.1539   37.1899  -22.8387 C   0  0  0  0  0  0  0  0  0  0  0  0
  -21.2892   38.0521  -22.1136 N   0  0  0  0  0  0  0  0  0  0  0  0
  -21.6897   38.4135  -20.8206 C   0  0  0  0  0  0  0  0  0  0  0  0
  -19.9125   37.8413  -22.3918 C   0  0  1  0  0  0  0  0  0  0  0  0
  -18.9557   38.7171  -21.6664 C   0  0  0  0  0  0  0  0  0  0  0  0
  -19.1567   40.1905  -21.9376 C   0  0  0  0  0  0  0  0  0  0  0  0
  -18.1609   40.8931  -21.1803 O   0  0  0  0  0  0  0  0  0  0  0  0
  -18.1039   42.2556  -21.2257 C   0  0  0  0  0  0  0  0  0  0  0  0
  -19.0023   42.9524  -22.0011 C   0  0  0  0  0  0  0  0  0  0  0  0
  -18.9434   44.3200  -22.0450 C   0  0  0  0  0  0  0  0  0  0  0  0
  -17.9782   44.9849  -21.3067 C   0  0  0  0  0  0  0  0  0  0  0  0
  -17.0605   44.3152  -20.5175 C   0  0  0  0  0  0  0  0  0  0  0  0
  -16.1151   45.0106  -19.7961 C   0  0  0  0  0  0  0  0  0  0  0  0
  -15.2481   44.2607  -19.0420 C   0  0  0  0  0  0  0  0  0  0  0  0
  -15.2795   42.8941  -18.9763 C   0  0  0  0  0  0  0  0  0  0  0  0
  -16.2366   42.2348  -19.7093 C   0  0  0  0  0  0  0  0  0  0  0  0
  -17.1500   42.9422  -20.4983 C   0  0  0  0  0  0  0  0  0  0  0  0
  -19.4596   36.4498  -22.2174 C   0  0  0  0  0  0  0  0  0  0  0  0
  -18.6334   35.8460  -23.1337 C   0  0  0  0  0  0  0  0  0  0  0  0
  -18.1962   34.5398  -22.9886 C   0  0  0  0  0  0  0  0  0  0  0  0
  -18.6092   33.8271  -21.8839 C   0  0  0  0  0  0  0  0  0  0  0  0
  -19.4309   34.3947  -20.9522 C   0  0  0  0  0  0  0  0  0  0  0  0
  -19.8557   35.7182  -21.1273 C   0  0  0  0  0  0  0  0  0  0  0  0
  -18.9180   40.1495  -20.9949 Cl  0  0  0  0  0  0  0  0  0  0  0  0
  1  2  1  0
  2  3  1  0
  2  4  1  0
  4  5  1  1
  5  6  1  0
  6  7  1  0
  7  8  1  0
  8  9  2  0
  9 10  1  0
 10 11  2  0
 11 12  1  0
 12 13  2  0
 13 14  1  0
 14 15  2  0
 15 16  1  0
 16 17  2  0
  4 18  1  0
 18 19  2  0
 19 20  1  0
 20 21  2  0
 21 22  1  0
 22 23  2  0
 17  8  1  0
 23 18  1  0
 17 12  1  0
M  END
$$$$
