
     RDKit          3D

 21 22  0  0  0  0  0  0  0  0999 V2000
   -5.6442   -7.0551  -23.3957 C   0  0  0  0  0  0  0  0  0  0  0  0
   -4.5152   -6.7934  -24.2471 N   0  0  0  0  0  0  0  0  0  0  0  0
   -4.7152   -6.2358  -25.5696 C   0  0  0  0  0  0  0  0  0  0  0  0
   -3.1986   -7.0807  -23.7948 C   0  0  0  0  0  0  0  0  0  0  0  0
   -2.9449   -7.6076  -22.5574 C   0  0  0  0  0  0  0  0  0  0  0  0
   -1.6668   -7.8846  -22.1230 C   0  0  0  0  0  0  0  0  0  0  0  0
   -0.5635   -7.6312  -22.9490 C   0  0  0  0  0  0  0  0  0  0  0  0
    0.6201   -7.9280  -22.4485 N   0  0  0  0  0  0  0  0  0  0  0  0
    1.8184   -7.7900  -23.0112 C   0  0  0  0  0  0  0  0  0  0  0  0
    2.9571   -8.1695  -22.3002 C   0  0  0  0  0  0  0  0  0  0  0  0
    4.1887   -8.0215  -22.8934 C   0  0  0  0  0  0  0  0  0  0  0  0
    4.4015   -7.5225  -24.1508 C   0  0  0  0  0  0  0  0  0  0  0  0
    5.5666   -7.4054  -24.6561 N   0  0  0  0  0  4  0  0  0  0  0  0
    6.7093   -7.8184  -23.8643 C   0  0  0  0  0  0  0  0  0  0  0  0
    5.7572   -6.8760  -25.9833 C   0  0  0  0  0  0  0  0  0  0  0  0
    3.2832   -7.1363  -24.8818 C   0  0  0  0  0  0  0  0  0  0  0  0
    2.0218   -7.2563  -24.3510 C   0  0  0  0  0  0  0  0  0  0  0  0
    0.5685   -6.8197  -25.1418 S   0  0  0  0  0  0  0  0  0  0  0  0
   -0.8265   -7.1010  -24.1927 C   0  0  0  0  0  0  0  0  0  0  0  0
   -2.1142   -6.8302  -24.6101 C   0  0  0  0  0  0  0  0  0  0  0  0
    0.5773   -7.2634  -24.0607 Cl  0  0  0  0  0 15  0  0  0  0  0  0
  1  2  1  0
  2  3  1  0
  2  4  1  0
  4  5  2  0
  5  6  1  0
  6  7  2  0
  7  8  1  0
  8  9  2  0
  9 10  1  0
 10 11  2  0
 11 12  1  0
 12 13  2  3
 13 14  1  0
 13 15  1  0
 12 16  1  0
 16 17  2  0
 17 18  1  0
 18 19  1  0
 19 20  2  0
 20  4  1  0
 19  7  1  0
 17  9  1  0
M  CHG  2  13   1  21  -1
M  END
$$$$
