
     RDKit          3D

 28 32  0  0  0  0  0  0  0  0999 V2000
  -24.3846   15.9883  -19.9823 O   0  0  0  0  0  0  0  0  0  0  0  0
  -24.8459   14.8506  -20.2119 C   0  0  0  0  0  0  0  0  0  0  0  0
  -25.8148   14.6456  -21.2201 N   0  0  0  0  0  0  0  0  0  0  0  0
  -26.2836   15.6841  -22.0627 C   0  0  0  0  0  0  0  0  0  0  0  0
  -25.8625   16.9991  -22.1030 C   0  0  0  0  0  0  0  0  0  0  0  0
  -26.6096   17.6036  -23.0734 N   0  0  0  0  0  0  0  0  0  0  0  0
  -27.4317   16.7331  -23.5966 N   0  0  0  0  0  0  0  0  0  0  0  0
  -27.2762   15.5259  -23.0111 C   0  0  0  0  0  0  0  0  0  0  0  0
  -27.9965   14.2921  -23.3023 C   0  0  0  0  0  0  0  0  0  0  0  0
  -28.6233   13.8945  -24.4178 N   0  0  0  0  0  0  0  0  0  0  0  0
  -29.1570   12.6617  -24.2278 C   0  0  0  0  0  0  0  0  0  0  0  0
  -29.8868   11.8007  -25.0191 C   0  0  0  0  0  0  0  0  0  0  0  0
  -30.3158   10.5722  -24.5632 C   0  0  0  0  0  0  0  0  0  0  0  0
  -30.0204   10.1530  -23.2642 C   0  0  0  0  0  0  0  0  0  0  0  0
  -30.4790    8.8299  -22.7684 C   0  0  0  0  0  0  0  0  0  0  0  0
  -29.5100    7.7995  -22.9698 N   0  0  0  0  0  0  0  0  0  0  0  0
  -29.4791    7.2719  -24.2955 C   0  0  0  0  0  0  0  0  0  0  0  0
  -28.2706    7.6489  -25.0819 C   0  0  0  0  0  0  0  0  0  0  0  0
  -27.0697    7.5358  -24.4315 O   0  0  0  0  0  0  0  0  0  0  0  0
  -27.2227    7.1182  -23.1237 C   0  0  0  0  0  0  0  0  0  0  0  0
  -28.1897    8.1058  -22.4536 C   0  0  0  0  0  0  0  0  0  0  0  0
  -29.2905   11.0250  -22.4868 C   0  0  0  0  0  0  0  0  0  0  0  0
  -28.8572   12.2635  -22.9443 C   0  0  0  0  0  0  0  0  0  0  0  0
  -28.1534   13.2696  -22.4051 N   0  0  0  0  0  0  0  0  0  0  0  0
  -24.3397   13.7932  -19.4048 N   0  0  0  0  0  0  0  0  0  0  0  0
  -23.4477   14.0393  -18.3003 C   0  0  0  0  0  0  0  0  0  0  0  0
  -23.8898   13.8529  -16.8993 C   0  0  0  0  0  0  0  0  0  0  0  0
  -22.8787   12.9096  -17.5229 C   0  0  0  0  0  0  0  0  0  0  0  0
  1  2  2  0
  2  3  1  0
  3  4  1  0
  4  5  2  0
  5  6  1  0
  6  7  1  0
  7  8  2  0
  8  9  1  0
  9 10  2  0
 10 11  1  0
 11 12  2  0
 12 13  1  0
 13 14  2  0
 14 15  1  0
 15 16  1  0
 16 17  1  0
 17 18  1  0
 18 19  1  0
 19 20  1  0
 20 21  1  0
 14 22  1  0
 22 23  2  0
 23 24  1  0
  2 25  1  0
 25 26  1  0
 26 27  1  0
 27 28  1  0
  8  4  1  0
 24  9  1  0
 28 26  1  0
 23 11  1  0
 21 16  1  0
M  END
$$$$
