
     RDKit          3D

 26 25  0  0  0  0  0  0  0  0999 V2000
  -13.4040   33.4924  -23.6742 C   0  0  0  0  0  0  0  0  0  0  0  0
  -14.6117   33.1452  -22.8330 C   0  0  0  0  0  0  0  0  0  0  0  0
  -15.6932   34.2016  -22.9645 C   0  0  0  0  0  0  0  0  0  0  0  0
  -16.7148   33.8578  -23.9978 C   0  0  0  0  0  0  0  0  0  0  0  0
  -17.9526   34.7164  -23.8282 C   0  0  0  0  0  0  0  0  0  0  0  0
  -18.1247   35.6761  -24.9807 C   0  0  0  0  0  0  0  0  0  0  0  0
  -19.6692   36.6170  -24.6764 S   0  0  0  0  0  0  0  0  0  0  0  0
  -19.2245   38.2503  -24.0063 C   0  0  0  0  0  0  0  0  0  0  0  0
  -19.3884   38.2248  -22.5085 C   0  0  0  0  0  0  0  0  0  0  0  0
  -19.2498   39.5160  -21.8924 N   0  0  0  0  0  0  0  0  0  0  0  0
  -18.3559   40.5331  -22.3324 C   0  0  0  0  0  0  0  0  0  0  0  0
  -17.6912   40.3008  -23.3739 O   0  0  0  0  0  0  0  0  0  0  0  0
  -18.2457   41.7881  -21.5710 C   0  0  0  0  0  0  0  0  0  0  0  0
  -16.9299   42.0385  -20.9376 C   0  0  0  0  0  0  0  0  0  0  0  0
  -16.7666   43.3574  -20.2509 C   0  0  0  0  0  0  0  0  0  0  0  0
  -15.8674   44.1595  -21.0698 N   0  0  0  0  0  0  0  0  0  0  0  0
  -18.0083   44.1033  -20.0659 C   0  0  0  0  0  0  0  0  0  0  0  0
  -18.8124   43.9498  -19.0946 O   0  0  0  0  0  0  0  0  0  0  0  0
  -18.3825   45.0625  -20.9921 O   0  0  0  0  0  0  0  0  0  0  0  0
  -20.6283   37.5206  -22.1391 C   0  0  0  0  0  0  0  0  0  0  0  0
  -21.7197   38.1288  -22.2866 O   0  0  0  0  0  0  0  0  0  0  0  0
  -20.6888   36.1968  -21.6248 N   0  0  0  0  0  0  0  0  0  0  0  0
  -21.7387   35.7736  -20.7482 C   0  0  0  0  0  0  0  0  0  0  0  0
  -23.0954   36.0515  -21.2768 C   0  0  0  0  0  0  0  0  0  0  0  0
  -23.6526   35.2668  -22.0828 O   0  0  0  0  0  0  0  0  0  0  0  0
  -23.7700   37.1920  -20.8832 O   0  0  0  0  0  0  0  0  0  0  0  0
  1  2  1  0
  2  3  1  0
  3  4  1  0
  4  5  1  0
  5  6  1  0
  6  7  1  0
  7  8  1  0
  8  9  1  0
  9 10  1  0
 10 11  1  0
 11 12  2  0
 11 13  1  0
 13 14  1  0
 14 15  1  0
 15 16  1  0
 15 17  1  0
 17 18  2  0
 17 19  1  0
  9 20  1  0
 20 21  2  0
 20 22  1  0
 22 23  1  0
 23 24  1  0
 24 25  2  0
 24 26  1  0
M  END
$$$$
