
     RDKit          3D

 34 37  0  0  0  0  0  0  0  0999 V2000
  -20.1478   43.1714  -22.2228 C   0  0  0  0  0  0  0  0  0  0  0  0
  -18.7711   42.9581  -21.6472 C   0  0  0  0  0  0  0  0  0  0  0  0
  -18.2497   41.7577  -21.2410 C   0  0  0  0  0  0  0  0  0  0  0  0
  -18.9399   40.4498  -21.2830 C   0  0  0  0  0  0  0  0  0  0  0  0
  -20.0370   40.2822  -21.8705 O   0  0  0  0  0  0  0  0  0  0  0  0
  -18.3585   39.3121  -20.6395 N   0  0  0  0  0  0  0  0  0  0  0  0
  -18.8804   38.0046  -20.7011 C   0  0  0  0  0  0  0  0  0  0  0  0
  -19.7189   37.5823  -19.6917 C   0  0  0  0  0  0  0  0  0  0  0  0
  -20.2563   36.3247  -19.6934 C   0  0  0  0  0  0  0  0  0  0  0  0
  -19.9447   35.4694  -20.7338 C   0  0  0  0  0  0  0  0  0  0  0  0
  -19.1062   35.8743  -21.7553 C   0  0  0  0  0  0  0  0  0  0  0  0
  -18.8254   34.8986  -22.8327 C   0  0  0  0  0  0  0  0  0  0  0  0
  -18.8158   35.4799  -24.0768 F   0  0  0  0  0  0  0  0  0  0  0  0
  -17.5756   34.3019  -22.6183 F   0  0  0  0  0  0  0  0  0  0  0  0
  -19.7405   33.8482  -22.8030 F   0  0  0  0  0  0  0  0  0  0  0  0
  -18.5852   37.1404  -21.7229 C   0  0  0  0  0  0  0  0  0  0  0  0
  -16.9871   42.0177  -20.7860 C   0  0  0  0  0  0  0  0  0  0  0  0
  -16.7093   43.3914  -20.9057 C   0  0  0  0  0  0  0  0  0  0  0  0
  -15.4563   43.9939  -20.4579 C   0  0  0  0  0  0  0  0  0  0  0  0
  -15.5221   45.2884  -19.9099 C   0  0  0  0  0  0  0  0  0  0  0  0
  -14.4074   45.9444  -19.4463 C   0  0  0  0  0  0  0  0  0  0  0  0
  -13.1839   45.3169  -19.5191 C   0  0  0  0  0  0  0  0  0  0  0  0
  -13.0762   44.0574  -20.0451 C   0  0  0  0  0  0  0  0  0  0  0  0
  -14.2196   43.4272  -20.5012 C   0  0  0  0  0  0  0  0  0  0  0  0
  -17.8206   43.9214  -21.4331 N   0  0  0  0  0  0  0  0  0  0  0  0
  -18.0799   45.2877  -21.7560 C   0  0  0  0  0  0  0  0  0  0  0  0
  -19.3780   45.6082  -22.3963 C   0  0  0  0  0  0  0  0  0  0  0  0
  -19.3142   46.9373  -23.1543 C   0  0  0  0  0  0  0  0  0  0  0  0
  -20.2983   47.8674  -22.6960 N   0  0  0  0  0  0  0  0  0  0  0  0
  -20.0529   48.3067  -21.3475 C   0  0  0  0  0  0  0  0  0  0  0  0
  -20.2995   49.8064  -21.2963 C   0  0  0  0  0  0  0  0  0  0  0  0
  -19.3836   50.4500  -22.0881 O   0  0  0  0  0  0  0  0  0  0  0  0
  -19.4329   50.0470  -23.4020 C   0  0  0  0  0  0  0  0  0  0  0  0
  -20.4954   48.9679  -23.6051 C   0  0  0  0  0  0  0  0  0  0  0  0
  1  2  1  0
  2  3  2  0
  3  4  1  0
  4  5  2  0
  4  6  1  0
  6  7  1  0
  7  8  2  0
  8  9  1  0
  9 10  2  0
 10 11  1  0
 11 12  1  0
 12 13  1  0
 12 14  1  0
 12 15  1  0
 11 16  2  0
  3 17  1  0
 17 18  2  0
 18 19  1  0
 19 20  2  0
 20 21  1  0
 21 22  2  0
 22 23  1  0
 23 24  2  0
 18 25  1  0
 25 26  1  0
 26 27  1  0
 27 28  1  0
 28 29  1  0
 29 30  1  0
 30 31  1  0
 31 32  1  0
 32 33  1  0
 33 34  1  0
 25  2  1  0
 34 29  1  0
 16  7  1  0
 24 19  1  0
M  END
$$$$
