
     RDKit          3D

 16 17  0  0  0  0  0  0  0  0999 V2000
  -17.0610   44.7810  -19.1483 C   0  0  0  0  0  0  0  0  0  0  0  0
  -17.0329   44.3731  -20.6081 C   0  0  0  0  0  0  0  0  0  0  0  0
  -18.3328   43.8743  -21.0287 N   0  0  0  0  0  0  0  0  0  0  0  0
  -18.4772   42.5450  -21.4614 C   0  0  0  0  0  0  0  0  0  0  0  0
  -19.4637   41.9899  -21.9899 N   0  0  0  0  0  0  0  0  0  0  0  0
  -19.3970   40.6326  -22.3507 C   0  0  1  0  0  0  0  0  0  0  0  0
  -18.0025   40.1646  -22.5470 C   0  0  2  0  0  0  0  0  0  0  0  0
  -17.7157   38.8679  -22.3324 O   0  0  0  0  0  0  0  0  0  0  0  0
  -18.3551   38.2247  -21.3122 C   0  0  2  0  0  0  0  0  0  0  0  0
  -17.8780   36.8242  -21.1434 C   0  0  0  0  0  0  0  0  0  0  0  0
  -17.6304   36.1698  -22.3275 O   0  0  0  0  0  0  0  0  0  0  0  0
  -19.8420   38.3124  -21.5802 C   0  0  1  0  0  0  0  0  0  0  0  0
  -20.5747   37.5242  -20.7090 O   0  0  0  0  0  0  0  0  0  0  0  0
  -20.2120   39.7714  -21.4167 C   0  0  2  0  0  0  0  0  0  0  0  0
  -21.5576   39.9241  -21.7444 O   0  0  0  0  0  0  0  0  0  0  0  0
  -17.1863   41.3083  -21.3455 S   0  0  0  0  0  0  0  0  0  0  0  0
  1  2  1  0
  2  3  1  0
  3  4  1  0
  4  5  2  0
  6  5  1  1
  6  7  1  0
  7  8  1  1
  8  9  1  0
  9 10  1  6
 10 11  1  0
  9 12  1  0
 12 13  1  1
 12 14  1  0
 14 15  1  6
  7 16  1  0
 16  4  1  0
 14  6  1  0
M  END
$$$$
