
     RDKit          3D

 14 15  0  0  0  0  0  0  0  0999 V2000
  -20.4749   35.0655  -21.2411 O   0  0  0  0  0  0  0  0  0  0  0  0
  -19.2719   35.1786  -21.5788 C   0  0  0  0  0  0  0  0  0  0  0  0
  -18.5166   34.0805  -22.0735 N   0  0  0  0  0  0  0  0  0  0  0  0
  -19.1425   32.8146  -22.2294 C   0  0  0  0  0  0  0  0  0  0  0  0
  -20.0598   32.2990  -21.3394 C   0  0  0  0  0  0  0  0  0  0  0  0
  -20.6455   31.0579  -21.5325 C   0  0  0  0  0  0  0  0  0  0  0  0
  -20.2882   30.3348  -22.6505 C   0  0  0  0  0  0  0  0  0  0  0  0
  -19.3789   30.8101  -23.5625 C   0  0  0  0  0  0  0  0  0  0  0  0
  -18.8104   32.0625  -23.3354 C   0  0  0  0  0  0  0  0  0  0  0  0
  -18.6296   36.4962  -21.4551 C   0  0  0  0  0  0  0  0  0  0  0  0
  -19.2510   37.6723  -21.0729 C   0  0  0  0  0  0  0  0  0  0  0  0
  -18.3181   38.6878  -21.0772 C   0  0  0  0  0  0  0  0  0  0  0  0
  -17.1530   38.1177  -21.4590 N   0  0  0  0  0  0  0  0  0  0  0  0
  -17.3507   36.8193  -21.6799 N   0  0  0  0  0  0  0  0  0  0  0  0
  1  2  2  0
  2  3  1  0
  3  4  1  0
  4  5  2  0
  5  6  1  0
  6  7  2  0
  7  8  1  0
  8  9  2  0
  2 10  1  0
 10 11  1  0
 11 12  2  0
 12 13  1  0
 13 14  1  0
  9  4  1  0
 14 10  2  0
M  END
$$$$
