
     RDKit          3D

 28 31  0  0  0  0  0  0  0  0999 V2000
  -12.0152   44.3792  -21.0884 C   0  0  0  0  0  0  0  0  0  0  0  0
  -12.2609   45.2853  -20.0340 O   0  0  0  0  0  0  0  0  0  0  0  0
  -13.5116   45.8221  -19.7723 C   0  0  0  0  0  0  0  0  0  0  0  0
  -13.6297   46.6811  -18.7018 C   0  0  0  0  0  0  0  0  0  0  0  0
  -14.8637   47.2117  -18.4406 C   0  0  0  0  0  0  0  0  0  0  0  0
  -15.9611   46.8774  -19.2511 C   0  0  0  0  0  0  0  0  0  0  0  0
  -15.8118   46.0336  -20.2948 C   0  0  0  0  0  0  0  0  0  0  0  0
  -16.9095   45.5676  -21.1161 C   0  0  0  0  0  0  0  0  0  0  0  0
  -17.6676   46.5671  -21.7720 C   0  0  0  0  0  0  0  0  0  0  0  0
  -18.7292   46.3143  -22.5593 C   0  0  0  0  0  0  0  0  0  0  0  0
  -19.4487   47.3073  -23.1852 F   0  0  0  0  0  0  0  0  0  0  0  0
  -19.1122   45.0112  -22.7472 C   0  0  0  0  0  0  0  0  0  0  0  0
  -18.4124   44.0044  -22.1321 C   0  0  0  0  0  0  0  0  0  0  0  0
  -17.3064   44.2827  -21.3099 C   0  0  0  0  0  0  0  0  0  0  0  0
  -16.6958   43.1231  -20.5676 C   0  0  1  0  0  0  0  0  0  0  0  0
  -17.6385   42.6300  -19.5089 C   0  0  0  0  0  0  0  0  0  0  0  0
  -18.3680   41.3902  -19.8042 C   0  0  0  0  0  0  0  0  0  0  0  0
  -19.4027   41.0258  -18.9773 N   0  0  0  0  0  0  0  0  0  0  0  0
  -20.1176   39.9131  -19.1534 C   0  0  0  0  0  0  0  0  0  0  0  0
  -21.1873   39.5629  -18.2761 N   0  0  0  0  0  0  0  0  0  0  0  0
  -19.8093   39.1012  -20.1989 N   0  0  0  0  0  0  0  0  0  0  0  0
  -18.8057   39.4201  -21.0313 C   0  0  0  0  0  0  0  0  0  0  0  0
  -18.4371   38.5534  -22.1906 C   0  0  0  0  0  0  0  0  0  0  0  0
  -18.0492   40.5887  -20.8532 C   0  0  0  0  0  0  0  0  0  0  0  0
  -16.9809   40.9365  -21.7625 C   0  0  0  0  0  0  0  0  0  0  0  0
  -16.6726   40.1902  -22.7504 O   0  0  0  0  0  0  0  0  0  0  0  0
  -16.2724   42.1529  -21.5208 N   0  0  0  0  0  0  0  0  0  0  0  0
  -14.5637   45.5285  -20.5164 N   0  0  0  0  0  0  0  0  0  0  0  0
  1  2  1  0
  2  3  1  0
  3  4  2  0
  4  5  1  0
  5  6  2  0
  6  7  1  0
  7  8  1  0
  8  9  2  0
  9 10  1  0
 10 11  1  0
 10 12  2  0
 12 13  1  0
 13 14  2  0
 15 14  1  6
 15 16  1  0
 16 17  1  0
 17 18  2  0
 18 19  1  0
 19 20  1  0
 19 21  2  0
 21 22  1  0
 22 23  1  0
 22 24  2  0
 24 25  1  0
 25 26  2  0
 25 27  1  0
  7 28  2  0
 28  3  1  0
 14  8  1  0
 27 15  1  0
 24 17  1  0
M  END
$$$$
