
     RDKit          3D

 33 37  0  0  0  0  0  0  0  0999 V2000
  -18.9941   42.2117  -26.0849 C   0  0  0  0  0  0  0  0  0  0  0  0
  -19.3701   40.8642  -26.6763 C   0  0  0  0  0  0  0  0  0  0  0  0
  -18.7182   39.8000  -26.0629 O   0  0  0  0  0  0  0  0  0  0  0  0
  -19.3830   38.7381  -25.4625 C   0  0  0  0  0  0  0  0  0  0  0  0
  -20.4241   38.0644  -25.9147 N   0  0  0  0  0  0  0  0  0  0  0  0
  -20.7671   37.1054  -25.0263 C   0  0  0  0  0  0  0  0  0  0  0  0
  -21.7660   36.1622  -25.0722 C   0  0  0  0  0  0  0  0  0  0  0  0
  -21.8606   35.2972  -24.0156 C   0  0  0  0  0  0  0  0  0  0  0  0
  -20.9823   35.3940  -22.9732 C   0  0  0  0  0  0  0  0  0  0  0  0
  -19.9470   36.3601  -22.9085 C   0  0  0  0  0  0  0  0  0  0  0  0
  -19.0953   36.3590  -21.7539 C   0  0  0  0  0  0  0  0  0  0  0  0
  -17.8448   36.7461  -21.9567 O   0  0  0  0  0  0  0  0  0  0  0  0
  -19.2547   36.0482  -20.4614 O   0  0  0  0  0  0  0  0  0  0  0  0
  -19.8471   37.2323  -23.9670 C   0  0  0  0  0  0  0  0  0  0  0  0
  -19.0093   38.2230  -24.2335 N   0  0  0  0  0  0  0  0  0  0  0  0
  -17.9191   38.7823  -23.4754 C   0  0  0  0  0  0  0  0  0  0  0  0
  -18.3018   39.9629  -22.6949 C   0  0  0  0  0  0  0  0  0  0  0  0
  -19.5672   40.4713  -22.6872 C   0  0  0  0  0  0  0  0  0  0  0  0
  -19.9384   41.5899  -21.9250 C   0  0  0  0  0  0  0  0  0  0  0  0
  -18.9618   42.1875  -21.1559 C   0  0  0  0  0  0  0  0  0  0  0  0
  -19.3362   43.3475  -20.3614 C   0  0  0  0  0  0  0  0  0  0  0  0
  -19.7409   44.4937  -21.0606 C   0  0  0  0  0  0  0  0  0  0  0  0
  -20.1095   45.5896  -20.3118 C   0  0  0  0  0  0  0  0  0  0  0  0
  -20.0992   45.6110  -18.9342 C   0  0  0  0  0  0  0  0  0  0  0  0
  -19.6870   44.4418  -18.2851 C   0  0  0  0  0  0  0  0  0  0  0  0
  -19.3088   43.3204  -18.9951 C   0  0  0  0  0  0  0  0  0  0  0  0
  -18.8649   42.1006  -18.3103 C   0  0  0  0  0  0  0  0  0  0  0  0
  -19.3964   41.6276  -17.1647 N   0  0  0  0  0  0  0  0  0  0  0  0
  -18.7546   40.5366  -16.8465 N   0  0  0  0  0  0  0  0  0  0  0  0
  -17.8306   40.3021  -17.7565 N   0  0  0  0  0  0  0  0  0  0  0  0
  -17.8862   41.2548  -18.6627 N   0  0  0  0  0  0  0  0  0  0  0  0
  -17.6699   41.7110  -21.1312 C   0  0  0  0  0  0  0  0  0  0  0  0
  -17.3765   40.6142  -21.8998 C   0  0  0  0  0  0  0  0  0  0  0  0
  1  2  1  0
  2  3  1  0
  3  4  1  0
  4  5  2  0
  5  6  1  0
  6  7  2  0
  7  8  1  0
  8  9  2  0
  9 10  1  0
 10 11  1  0
 11 12  2  0
 11 13  1  0
 10 14  2  0
 14 15  1  0
 15 16  1  0
 16 17  1  0
 17 18  2  0
 18 19  1  0
 19 20  2  0
 20 21  1  0
 21 22  2  0
 22 23  1  0
 23 24  2  0
 24 25  1  0
 25 26  2  0
 26 27  1  0
 27 28  1  0
 28 29  2  0
 29 30  1  0
 30 31  1  0
 20 32  1  0
 32 33  2  0
 15  4  1  0
 33 17  1  0
 14  6  1  0
 26 21  1  0
 31 27  2  0
M  END
$$$$
