
     RDKit          3D

 30 33  0  0  0  0  0  0  0  0999 V2000
  -16.1753   20.4398  -37.3054 O   0  0  0  0  0  0  0  0  0  0  0  0
  -16.9246   19.4412  -37.5290 C   0  0  0  0  0  0  0  0  0  0  0  0
  -17.9076   18.7081  -36.7285 C   0  0  2  0  0  0  0  0  0  0  0  0
  -17.2236   17.7394  -35.7803 C   0  0  0  0  0  0  0  0  0  0  0  0
  -16.3771   18.5581  -34.8470 C   0  0  0  0  0  0  0  0  0  0  0  0
  -16.3564   18.0444  -33.4354 C   0  0  2  0  0  0  0  0  0  0  0  0
  -15.8037   19.0079  -32.5837 O   0  0  0  0  0  0  0  0  0  0  0  0
  -15.7882   16.7133  -33.2676 C   0  0  0  0  0  0  0  0  0  0  0  0
  -16.6287   15.6356  -33.0844 C   0  0  0  0  0  0  0  0  0  0  0  0
  -16.1564   14.3519  -32.9254 C   0  0  0  0  0  0  0  0  0  0  0  0
  -14.8001   14.1321  -32.9493 C   0  0  0  0  0  0  0  0  0  0  0  0
  -14.3074   12.8642  -32.7932 F   0  0  0  0  0  0  0  0  0  0  0  0
  -13.9552   15.1838  -33.1291 C   0  0  0  0  0  0  0  0  0  0  0  0
  -14.4393   16.4762  -33.2890 C   0  0  0  0  0  0  0  0  0  0  0  0
  -18.3846   18.1185  -38.0125 C   0  0  1  0  0  0  0  0  0  0  0  0
  -19.5880   18.8308  -38.5027 C   0  0  0  0  0  0  0  0  0  0  0  0
  -19.5014   20.0676  -39.0954 C   0  0  0  0  0  0  0  0  0  0  0  0
  -20.6397   20.7365  -39.5566 C   0  0  0  0  0  0  0  0  0  0  0  0
  -21.8842   20.1306  -39.4089 C   0  0  0  0  0  0  0  0  0  0  0  0
  -22.9802   20.8260  -39.8781 O   0  0  0  0  0  0  0  0  0  0  0  0
  -21.9823   18.8911  -38.8163 C   0  0  0  0  0  0  0  0  0  0  0  0
  -20.8198   18.2533  -38.3673 C   0  0  0  0  0  0  0  0  0  0  0  0
  -17.1668   18.5759  -38.6297 N   0  0  0  0  0  0  0  0  0  0  0  0
  -16.5014   18.2608  -39.8598 C   0  0  0  0  0  0  0  0  0  0  0  0
  -15.1291   18.4405  -39.9781 C   0  0  0  0  0  0  0  0  0  0  0  0
  -14.4721   18.1451  -41.1467 C   0  0  0  0  0  0  0  0  0  0  0  0
  -15.2033   17.6581  -42.2243 C   0  0  0  0  0  0  0  0  0  0  0  0
  -14.5661   17.3606  -43.3900 F   0  0  0  0  0  0  0  0  0  0  0  0
  -16.5555   17.4890  -42.0846 C   0  0  0  0  0  0  0  0  0  0  0  0
  -17.2263   17.7833  -40.9127 C   0  0  0  0  0  0  0  0  0  0  0  0
  1  2  2  0
  2  3  1  0
  3  4  1  1
  4  5  1  0
  5  6  1  0
  6  7  1  1
  6  8  1  0
  8  9  2  0
  9 10  1  0
 10 11  2  0
 11 12  1  0
 11 13  1  0
 13 14  2  0
  3 15  1  0
 15 16  1  6
 16 17  2  0
 17 18  1  0
 18 19  2  0
 19 20  1  0
 19 21  1  0
 21 22  2  0
 15 23  1  0
 23 24  1  0
 24 25  2  0
 25 26  1  0
 26 27  2  0
 27 28  1  0
 27 29  1  0
 29 30  2  0
 23  2  1  0
 30 24  1  0
 14  8  1  0
 22 16  1  0
M  END
$$$$
