
     RDKit          3D

 40 44  0  0  0  0  0  0  0  0999 V2000
  -10.7708   43.5970  -11.5608 C   0  0  0  0  0  0  0  0  0  0  0  0
  -10.4418   43.0483  -12.8587 N   0  0  0  0  0  0  0  0  0  0  0  0
   -9.2184   42.2794  -12.7883 C   0  0  0  0  0  0  0  0  0  0  0  0
  -10.3139   44.1088  -13.8320 C   0  0  0  0  0  0  0  0  0  0  0  0
  -11.4461   43.9835  -14.8016 C   0  0  0  0  0  0  0  0  0  0  0  0
  -11.6592   44.8389  -15.7619 C   0  0  0  0  0  0  0  0  0  0  0  0
  -12.7182   44.7313  -16.7637 C   0  0  0  0  0  0  0  0  0  0  0  0
  -13.6469   43.8635  -16.6357 O   0  0  0  0  0  0  0  0  0  0  0  0
  -12.7892   45.5610  -17.9189 N   0  0  0  0  0  0  0  0  0  0  0  0
  -13.8728   45.3922  -18.8365 C   0  0  0  0  0  0  0  0  0  0  0  0
  -15.0880   44.9832  -18.3283 C   0  0  0  0  0  0  0  0  0  0  0  0
  -16.1909   44.7873  -19.1346 C   0  0  0  0  0  0  0  0  0  0  0  0
  -16.1131   44.9996  -20.5161 C   0  0  0  0  0  0  0  0  0  0  0  0
  -17.2977   44.7782  -21.3503 C   0  0  0  0  0  0  0  0  0  0  0  0
  -18.3072   45.5135  -21.1103 O   0  0  0  0  0  0  0  0  0  0  0  0
  -17.3577   43.8122  -22.3721 N   0  0  0  0  0  0  0  0  0  0  0  0
  -18.0632   44.1354  -23.5910 C   0  0  0  0  0  0  0  0  0  0  0  0
  -18.8704   42.9510  -24.0863 C   0  0  0  0  0  0  0  0  0  0  0  0
  -18.0015   41.7148  -24.0645 C   0  0  0  0  0  0  0  0  0  0  0  0
  -17.6084   41.4454  -22.6326 C   0  0  1  0  0  0  0  0  0  0  0  0
  -17.0242   40.1283  -22.4777 N   0  0  0  0  0  0  0  0  0  0  0  0
  -17.8931   39.0627  -22.0879 C   0  0  0  0  0  0  0  0  0  0  0  0
  -17.4330   37.8284  -21.8251 N   0  0  0  0  0  0  0  0  0  0  0  0
  -18.2104   36.8004  -21.4482 C   0  0  0  0  0  0  0  0  0  0  0  0
  -19.5548   37.0575  -21.3322 C   0  0  0  0  0  0  0  0  0  0  0  0
  -20.6075   35.7705  -20.8502 Cl  0  0  0  0  0  0  0  0  0  0  0  0
  -20.1023   38.3203  -21.5898 C   0  0  0  0  0  0  0  0  0  0  0  0
  -21.5243   38.5500  -21.4254 C   0  0  0  0  0  0  0  0  0  0  0  0
  -22.4864   37.7051  -20.9361 C   0  0  0  0  0  0  0  0  0  0  0  0
  -23.6811   38.3336  -20.9518 N   0  0  0  0  0  0  0  0  0  0  0  0
  -23.5511   39.5812  -21.4393 C   0  0  0  0  0  0  0  0  0  0  0  0
  -24.4366   40.6152  -21.6577 C   0  0  0  0  0  0  0  0  0  0  0  0
  -23.9986   41.8055  -22.1757 C   0  0  0  0  0  0  0  0  0  0  0  0
  -22.6562   41.9541  -22.4762 C   0  0  0  0  0  0  0  0  0  0  0  0
  -21.7795   40.9247  -22.2582 C   0  0  0  0  0  0  0  0  0  0  0  0
  -22.1917   39.7234  -21.7405 C   0  0  0  0  0  0  0  0  0  0  0  0
  -19.2343   39.2758  -21.9610 N   0  0  0  0  0  0  0  0  0  0  0  0
  -16.7093   42.5364  -22.1582 C   0  0  0  0  0  0  0  0  0  0  0  0
  -14.8945   45.4065  -21.0023 C   0  0  0  0  0  0  0  0  0  0  0  0
  -13.7897   45.6018  -20.1859 C   0  0  0  0  0  0  0  0  0  0  0  0
  1  2  1  0
  2  3  1  0
  2  4  1  0
  4  5  1  0
  5  6  2  0
  6  7  1  0
  7  8  2  0
  7  9  1  0
  9 10  1  0
 10 11  2  0
 11 12  1  0
 12 13  2  0
 13 14  1  0
 14 15  2  0
 14 16  1  0
 16 17  1  0
 17 18  1  0
 18 19  1  0
 19 20  1  0
 20 21  1  6
 21 22  1  0
 22 23  2  0
 23 24  1  0
 24 25  2  0
 25 26  1  0
 25 27  1  0
 27 28  1  0
 28 29  2  0
 29 30  1  0
 30 31  1  0
 31 32  2  0
 32 33  1  0
 33 34  2  0
 34 35  1  0
 35 36  2  0
 27 37  2  0
 20 38  1  0
 13 39  1  0
 39 40  2  0
 40 10  1  0
 38 16  1  0
 37 22  1  0
 36 28  1  0
 36 31  1  0
M  END
$$$$
