
     RDKit          3D

 32 35  0  0  0  0  0  0  0  0999 V2000
  -18.4301   21.2547  -44.2143 O   0  0  0  0  0  0  0  0  0  0  0  0
  -17.2050   21.1759  -43.9634 C   0  0  0  0  0  0  0  0  0  0  0  0
  -16.7020   20.2657  -42.9108 C   0  0  0  0  0  0  0  0  0  0  0  0
  -17.7724   20.0867  -41.8829 C   0  0  0  0  0  0  0  0  0  0  0  0
  -17.2860   20.1839  -40.5428 N   0  0  0  0  0  0  0  0  0  0  0  0
  -18.3999   20.3579  -39.6268 C   0  0  0  0  0  0  0  0  0  0  0  0
  -18.1170   19.8982  -38.2362 C   0  0  0  0  0  0  0  0  0  0  0  0
  -17.5517   18.5685  -38.1801 N   0  0  0  0  0  0  0  0  0  0  0  0
  -17.5192   17.8451  -36.9772 C   0  0  0  0  0  0  0  0  0  0  0  0
  -18.5614   17.7631  -36.2868 O   0  0  0  0  0  0  0  0  0  0  0  0
  -16.3447   17.2507  -36.5982 O   0  0  0  0  0  0  0  0  0  0  0  0
  -15.9508   17.0548  -35.2876 C   0  0  0  0  0  0  0  0  0  0  0  0
  -16.6988   16.0523  -34.5202 C   0  0  0  0  0  0  0  0  0  0  0  0
  -15.9585   15.1146  -33.7870 C   0  0  0  0  0  0  0  0  0  0  0  0
  -16.5703   14.1261  -33.0520 C   0  0  0  0  0  0  0  0  0  0  0  0
  -15.6852   12.9357  -32.1224 Cl  0  0  0  0  0  0  0  0  0  0  0  0
  -17.9595   14.0415  -33.0257 C   0  0  0  0  0  0  0  0  0  0  0  0
  -18.7105   14.9554  -33.7413 C   0  0  0  0  0  0  0  0  0  0  0  0
  -20.4558   14.8721  -33.7277 Cl  0  0  0  0  0  0  0  0  0  0  0  0
  -18.0653   15.9554  -34.4843 C   0  0  0  0  0  0  0  0  0  0  0  0
  -17.0246   18.0255  -39.3944 C   0  0  0  0  0  0  0  0  0  0  0  0
  -16.3537   19.2137  -40.1121 C   0  0  0  0  0  0  0  0  0  0  0  0
  -16.2451   21.9974  -44.7231 C   0  0  0  0  0  0  0  0  0  0  0  0
  -16.5475   22.4495  -45.9938 C   0  0  0  0  0  0  0  0  0  0  0  0
  -15.6812   23.2208  -46.7322 C   0  0  0  0  0  0  0  0  0  0  0  0
  -14.4573   23.5643  -46.1946 C   0  0  0  0  0  0  0  0  0  0  0  0
  -13.4024   24.2777  -46.6146 N   0  0  0  0  0  0  0  0  0  0  0  0
  -12.4547   24.2908  -45.6624 C   0  0  0  0  0  0  0  0  0  0  0  0
  -11.3348   24.8816  -45.7556 O   0  0  0  0  0  0  0  0  0  0  0  0
  -12.9272   23.5904  -44.6678 O   0  0  0  0  0  0  0  0  0  0  0  0
  -14.1313   23.1199  -44.9161 C   0  0  0  0  0  0  0  0  0  0  0  0
  -15.0233   22.3435  -44.1937 C   0  0  0  0  0  0  0  0  0  0  0  0
  1  2  2  0
  2  3  1  0
  3  4  1  0
  4  5  1  0
  5  6  1  0
  6  7  1  0
  7  8  1  0
  8  9  1  0
  9 10  2  0
  9 11  1  0
 11 12  1  0
 12 13  1  0
 13 14  2  0
 14 15  1  0
 15 16  1  0
 15 17  2  0
 17 18  1  0
 18 19  1  0
 18 20  2  0
  8 21  1  0
 21 22  1  0
  2 23  1  0
 23 24  2  0
 24 25  1  0
 25 26  2  0
 26 27  1  0
 27 28  1  0
 28 29  2  0
 28 30  1  0
 30 31  1  0
 31 32  2  0
 22  5  1  0
 32 23  1  0
 20 13  1  0
 31 26  1  0
M  END
$$$$
