
     RDKit          3D

 36 39  0  0  0  0  0  0  0  0999 V2000
  -19.8071   -2.3887  -28.7238 C   0  0  0  0  0  0  0  0  0  0  0  0
  -20.9181   -2.1022  -27.9693 O   0  0  0  0  0  0  0  0  0  0  0  0
  -21.9417   -1.2014  -28.2361 C   0  0  0  0  0  0  0  0  0  0  0  0
  -21.7346   -0.0583  -28.9709 C   0  0  0  0  0  0  0  0  0  0  0  0
  -22.7663    0.8480  -29.2419 C   0  0  0  0  0  0  0  0  0  0  0  0
  -22.5024    2.0249  -30.0237 N   0  0  0  0  0  0  0  0  0  0  0  0
  -21.1918    2.1553  -30.5576 C   0  0  0  0  0  0  0  0  0  0  0  0
  -20.2228    2.7246  -29.7583 C   0  0  0  0  0  0  0  0  0  0  0  0
  -20.5740    3.1391  -28.4465 C   0  0  0  0  0  0  0  0  0  0  0  0
  -20.8482    3.4844  -27.3422 N   0  0  0  0  0  0  0  0  0  0  0  0
  -18.9621    2.8505  -30.2918 C   0  0  0  0  0  0  0  0  0  0  0  0
  -18.6968    2.4304  -31.5440 N   0  0  0  0  0  0  0  0  0  0  0  0
  -19.6504    1.8765  -32.3104 C   0  0  0  0  0  0  0  0  0  0  0  0
  -19.3837    1.4302  -33.6031 C   0  0  0  0  0  0  0  0  0  0  0  0
  -20.3620    0.8535  -34.3836 C   0  0  0  0  0  0  0  0  0  0  0  0
  -20.0432    0.4278  -35.6598 O   0  0  0  0  0  0  0  0  0  0  0  0
  -18.8795   -0.3261  -35.8627 C   0  0  0  0  0  0  0  0  0  0  0  0
  -18.7000   -0.7981  -37.2831 C   0  0  0  0  0  0  0  0  0  0  0  0
  -17.4599   -1.6499  -37.3189 C   0  0  0  0  0  0  0  0  0  0  0  0
  -17.3411   -2.2967  -38.5898 N   0  0  0  0  0  0  0  0  0  0  0  0
  -18.2150   -1.8142  -39.6072 C   0  0  0  0  0  0  0  0  0  0  0  0
  -17.5667   -0.7190  -40.4356 C   0  0  0  0  0  0  0  0  0  0  0  0
  -16.4858   -0.0637  -39.6981 N   0  0  0  0  0  0  0  0  0  0  0  0
  -15.9941    1.0105  -40.5408 C   0  0  0  0  0  0  0  0  0  0  0  0
  -15.4198   -0.9828  -39.3450 C   0  0  0  0  0  0  0  0  0  0  0  0
  -15.9553   -2.3658  -39.0370 C   0  0  0  0  0  0  0  0  0  0  0  0
  -21.6574    0.6883  -33.9273 C   0  0  0  0  0  0  0  0  0  0  0  0
  -22.6347    0.1053  -34.7226 O   0  0  0  0  0  0  0  0  0  0  0  0
  -23.2907   -1.0360  -34.1966 C   0  0  0  0  0  0  0  0  0  0  0  0
  -21.9214    1.1390  -32.6277 C   0  0  0  0  0  0  0  0  0  0  0  0
  -20.9563    1.7141  -31.8404 C   0  0  0  0  0  0  0  0  0  0  0  0
  -24.0134    0.5523  -28.7397 C   0  0  0  0  0  0  0  0  0  0  0  0
  -25.3027    1.6961  -29.0845 Cl  0  0  0  0  0  0  0  0  0  0  0  0
  -24.2576   -0.5857  -27.9984 C   0  0  0  0  0  0  0  0  0  0  0  0
  -23.2031   -1.4729  -27.7453 C   0  0  0  0  0  0  0  0  0  0  0  0
  -23.5422   -2.9070  -26.8019 Cl  0  0  0  0  0  0  0  0  0  0  0  0
  1  2  1  0
  2  3  1  0
  3  4  2  0
  4  5  1  0
  5  6  1  0
  6  7  1  0
  7  8  2  0
  8  9  1  0
  9 10  3  0
  8 11  1  0
 11 12  2  0
 12 13  1  0
 13 14  2  0
 14 15  1  0
 15 16  1  0
 16 17  1  0
 17 18  1  0
 18 19  1  0
 19 20  1  0
 20 21  1  0
 21 22  1  0
 22 23  1  0
 23 24  1  0
 23 25  1  0
 25 26  1  0
 15 27  2  0
 27 28  1  0
 28 29  1  0
 27 30  1  0
 30 31  2  0
  5 32  2  0
 32 33  1  0
 32 34  1  0
 34 35  2  0
 35 36  1  0
 35  3  1  0
 31  7  1  0
 31 13  1  0
 26 20  1  0
M  END
$$$$
