
     RDKit          3D

 31 34  0  0  0  0  0  0  0  0999 V2000
  -15.7522   46.3621  -22.0170 C   0  0  0  0  0  0  0  0  0  0  0  0
  -16.4731   45.0954  -21.7244 C   0  0  0  0  0  0  0  0  0  0  0  0
  -16.8377   44.2453  -22.7783 C   0  0  0  0  0  0  0  0  0  0  0  0
  -17.5040   43.0824  -22.4612 C   0  0  0  0  0  0  0  0  0  0  0  0
  -17.8171   42.7360  -21.1636 C   0  0  0  0  0  0  0  0  0  0  0  0
  -18.5326   41.4712  -20.9023 C   0  0  2  0  0  0  0  0  0  0  0  0
  -17.9523   40.4179  -21.5849 O   0  0  0  0  0  0  0  0  0  0  0  0
  -18.4968   39.2042  -21.2934 C   0  0  2  0  0  0  0  0  0  0  0  0
  -18.8194   38.3967  -22.5564 C   0  0  0  0  0  0  0  0  0  0  0  0
  -17.6566   38.1703  -23.2980 O   0  0  0  0  0  0  0  0  0  0  0  0
  -19.7132   39.2314  -20.4312 C   0  0  1  0  0  0  0  0  0  0  0  0
  -19.4101   39.1984  -19.0691 O   0  0  0  0  0  0  0  0  0  0  0  0
  -20.6721   40.3419  -20.7714 C   0  0  2  0  0  0  0  0  0  0  0  0
  -21.7234   39.8874  -21.5652 O   0  0  0  0  0  0  0  0  0  0  0  0
  -19.9858   41.5424  -21.3645 C   0  0  1  0  0  0  0  0  0  0  0  0
  -20.5758   42.7368  -21.0386 O   0  0  0  0  0  0  0  0  0  0  0  0
  -17.4376   43.6020  -20.1742 C   0  0  0  0  0  0  0  0  0  0  0  0
  -16.7576   44.8034  -20.4146 C   0  0  0  0  0  0  0  0  0  0  0  0
  -16.3818   45.6843  -19.2983 C   0  0  0  0  0  0  0  0  0  0  0  0
  -15.2096   45.4111  -18.5728 C   0  0  0  0  0  0  0  0  0  0  0  0
  -14.1566   46.2208  -18.0928 C   0  0  0  0  0  0  0  0  0  0  0  0
  -13.1475   45.7082  -17.4308 C   0  0  0  0  0  0  0  0  0  0  0  0
  -13.1014   44.3434  -17.1904 C   0  0  0  0  0  0  0  0  0  0  0  0
  -12.1576   43.5254  -16.5205 C   0  0  0  0  0  0  0  0  0  0  0  0
  -11.7798   42.2757  -16.9636 C   0  0  0  0  0  0  0  0  0  0  0  0
  -10.8559   41.5075  -16.2864 C   0  0  0  0  0  0  0  0  0  0  0  0
  -10.2675   41.9678  -15.1242 C   0  0  0  0  0  0  0  0  0  0  0  0
   -9.3550   41.2321  -14.4381 F   0  0  0  0  0  0  0  0  0  0  0  0
  -10.6370   43.2158  -14.6708 C   0  0  0  0  0  0  0  0  0  0  0  0
  -11.5732   43.9848  -15.3644 C   0  0  0  0  0  0  0  0  0  0  0  0
  -14.6324   43.7593  -17.9812 S   0  0  0  0  0  0  0  0  0  0  0  0
  1  2  1  0
  2  3  2  0
  3  4  1  0
  4  5  2  0
  6  5  1  6
  6  7  1  0
  7  8  1  0
  8  9  1  6
  9 10  1  0
  8 11  1  0
 11 12  1  1
 11 13  1  0
 13 14  1  6
 13 15  1  0
 15 16  1  1
  5 17  1  0
 17 18  2  0
 18 19  1  0
 19 20  1  0
 20 21  2  0
 21 22  1  0
 22 23  2  0
 23 24  1  0
 24 25  2  0
 25 26  1  0
 26 27  2  0
 27 28  1  0
 27 29  1  0
 29 30  2  0
 23 31  1  0
 18  2  1  0
 31 20  1  0
 15  6  1  0
 30 24  1  0
M  END
$$$$
