
     RDKit          3D

 34 36  0  0  0  0  0  0  0  0999 V2000
  -22.6602   11.0604  -20.3619 C   0  0  0  0  0  0  0  0  0  0  0  0
  -23.8707   11.9649  -20.5416 C   0  0  0  0  0  0  0  0  0  0  0  0
  -23.6706   13.0153  -21.1556 O   0  0  0  0  0  0  0  0  0  0  0  0
  -25.1201   11.5002  -19.9817 C   0  0  0  0  0  0  0  0  0  0  0  0
  -24.9918   10.5547  -18.9375 C   0  0  0  0  0  0  0  0  0  0  0  0
  -26.0534   10.1345  -18.2348 N   0  0  0  0  0  0  0  0  0  0  0  0
  -27.2824   10.5932  -18.4918 C   0  0  0  0  0  0  0  0  0  0  0  0
  -28.3306   10.1132  -17.7230 C   0  0  0  0  0  0  0  0  0  0  0  0
  -29.6051   10.5952  -17.9986 C   0  0  0  0  0  0  0  0  0  0  0  0
  -29.8043   11.5057  -18.9912 C   0  0  0  0  0  0  0  0  0  0  0  0
  -31.1256   12.0551  -19.3296 C   0  0  0  0  0  0  0  0  0  0  0  0
  -32.2325   11.6711  -18.6580 C   0  0  0  0  0  0  0  0  0  0  0  0
  -33.5094   12.1748  -18.9536 C   0  0  0  0  0  0  0  0  0  0  0  0
  -34.9346   11.6718  -18.0798 Cl  0  0  0  0  0  0  0  0  0  0  0  0
  -33.6216   13.0817  -19.9547 C   0  0  0  0  0  0  0  0  0  0  0  0
  -34.8264   13.6471  -20.3344 O   0  0  0  0  0  0  0  0  0  0  0  0
  -32.4861   13.4802  -20.6488 C   0  0  0  0  0  0  0  0  0  0  0  0
  -32.6359   14.6574  -21.9488 Cl  0  0  0  0  0  0  0  0  0  0  0  0
  -31.2357   12.9835  -20.3555 C   0  0  0  0  0  0  0  0  0  0  0  0
  -28.7214   11.9318  -19.7068 N   0  0  0  0  0  0  0  0  0  0  0  0
  -27.4758   11.5053  -19.4873 C   0  0  0  0  0  0  0  0  0  0  0  0
  -26.3662   11.9668  -20.2511 C   0  0  0  0  0  0  0  0  0  0  0  0
  -26.6896   12.7777  -21.3307 N   0  0  0  0  0  0  0  0  0  0  0  0
  -26.0577   13.2324  -22.5179 C   0  0  1  0  0  0  0  0  0  0  0  0
  -25.6863   12.0783  -23.4116 C   0  0  0  0  0  0  0  0  0  0  0  0
  -25.0723   12.5214  -24.6997 C   0  0  0  0  0  0  0  0  0  0  0  0
  -25.8132   13.6093  -25.4151 C   0  0  2  0  0  0  0  0  0  0  0  0
  -24.8704   14.2298  -26.4325 C   0  0  0  0  0  0  0  0  0  0  0  0
  -25.4522   15.2930  -27.1878 N   0  0  0  0  0  0  0  0  0  0  0  0
  -26.4800   14.8937  -28.0962 C   0  0  0  0  0  0  0  0  0  0  0  0
  -24.4593   16.0942  -27.8469 C   0  0  0  0  0  0  0  0  0  0  0  0
  -26.3898   14.6414  -24.4963 C   0  0  0  0  0  0  0  0  0  0  0  0
  -27.1608   13.9641  -23.4002 C   0  0  0  0  0  0  0  0  0  0  0  0
  -26.8060   13.1260  -22.7491 Cl  0  0  0  0  0  0  0  0  0  0  0  0
  1  2  1  0
  2  3  2  0
  2  4  1  0
  4  5  2  0
  5  6  1  0
  6  7  2  0
  7  8  1  0
  8  9  2  0
  9 10  1  0
 10 11  1  0
 11 12  2  0
 12 13  1  0
 13 14  1  0
 13 15  2  0
 15 16  1  0
 15 17  1  0
 17 18  1  0
 17 19  2  0
 10 20  2  0
 20 21  1  0
 21 22  2  0
 22 23  1  0
 24 23  1  1
 24 25  1  0
 25 26  1  0
 26 27  1  0
 27 28  1  6
 28 29  1  0
 29 30  1  0
 29 31  1  0
 27 32  1  0
 32 33  1  0
 22  4  1  0
 33 24  1  0
 21  7  1  0
 19 11  1  0
M  END
$$$$
