
     RDKit          3D

 10 10  0  0  0  0  0  0  0  0999 V2000
  -22.1524   19.3475  -31.5967 N   0  0  0  0  0  0  0  0  0  0  0  0
  -20.7523   19.4518  -31.2104 C   0  0  0  0  0  0  0  0  0  0  0  0
  -19.9958   18.3278  -31.9292 C   0  0  0  0  0  0  0  0  0  0  0  0
  -18.5582   18.4353  -31.5695 C   0  0  0  0  0  0  0  0  0  0  0  0
  -17.6114   17.7328  -32.2980 C   0  0  0  0  0  0  0  0  0  0  0  0
  -16.2678   17.7893  -32.0167 C   0  0  0  0  0  0  0  0  0  0  0  0
  -15.7952   18.5606  -30.9798 C   0  0  0  0  0  0  0  0  0  0  0  0
  -14.4229   18.6273  -30.6812 O   0  0  0  0  0  0  0  0  0  0  0  0
  -16.7239   19.2664  -30.2444 C   0  0  0  0  0  0  0  0  0  0  0  0
  -18.0824   19.2075  -30.5310 C   0  0  0  0  0  0  0  0  0  0  0  0
  1  2  1  0
  2  3  1  0
  3  4  1  0
  4  5  2  0
  5  6  1  0
  6  7  2  0
  7  8  1  0
  7  9  1  0
  9 10  2  0
 10  4  1  0
M  END
$$$$
