
     RDKit          3D

 24 26  0  0  0  0  0  0  0  0999 V2000
  -18.8233   40.7081  -19.4012 C   0  0  0  0  0  0  0  0  0  0  0  0
  -18.5670   41.1747  -20.8252 C   0  0  1  0  0  0  0  0  0  0  0  0
  -19.8629   41.5947  -21.4714 C   0  0  1  0  0  0  0  0  0  0  0  0
  -19.6078   42.0635  -22.7589 O   0  0  0  0  0  0  0  0  0  0  0  0
  -20.7012   40.3656  -21.6372 C   0  0  0  0  0  0  0  0  0  0  0  0
  -20.2175   39.2294  -22.2313 C   0  0  0  0  0  0  0  0  0  0  0  0
  -20.9989   38.0924  -22.3832 C   0  0  0  0  0  0  0  0  0  0  0  0
  -22.3028   38.0706  -21.9354 C   0  0  0  0  0  0  0  0  0  0  0  0
  -23.0777   36.9235  -22.0934 O   0  0  0  0  0  0  0  0  0  0  0  0
  -22.7928   39.2118  -21.3373 C   0  0  0  0  0  0  0  0  0  0  0  0
  -22.0125   40.3382  -21.1889 C   0  0  0  0  0  0  0  0  0  0  0  0
  -17.5873   42.2045  -20.7738 N   0  0  0  0  0  0  0  0  0  0  0  0
  -17.4193   42.5899  -19.3703 C   0  0  0  0  0  0  0  0  0  0  0  0
  -16.8587   43.9837  -19.3722 C   0  0  0  0  0  0  0  0  0  0  0  0
  -15.7172   44.0381  -20.3493 C   0  0  0  0  0  0  0  0  0  0  0  0
  -16.2182   44.5962  -21.5323 O   0  0  0  0  0  0  0  0  0  0  0  0
  -14.6908   44.9327  -19.8175 C   0  0  0  0  0  0  0  0  0  0  0  0
  -13.4149   44.4492  -19.6234 C   0  0  0  0  0  0  0  0  0  0  0  0
  -12.4280   45.2727  -19.1227 C   0  0  0  0  0  0  0  0  0  0  0  0
  -12.6642   46.5951  -18.7977 C   0  0  0  0  0  0  0  0  0  0  0  0
  -13.9472   47.0579  -18.9996 C   0  0  0  0  0  0  0  0  0  0  0  0
  -14.9465   46.2518  -19.4985 C   0  0  0  0  0  0  0  0  0  0  0  0
  -15.1819   42.6743  -20.7111 C   0  0  0  0  0  0  0  0  0  0  0  0
  -16.3004   41.8453  -21.3154 C   0  0  0  0  0  0  0  0  0  0  0  0
  2  1  1  1
  2  3  1  0
  3  4  1  6
  3  5  1  0
  5  6  2  0
  6  7  1  0
  7  8  2  0
  8  9  1  0
  8 10  1  0
 10 11  2  0
  2 12  1  0
 12 13  1  0
 13 14  1  0
 14 15  1  0
 15 16  1  0
 15 17  1  0
 17 18  2  0
 18 19  1  0
 19 20  2  0
 20 21  1  0
 21 22  2  0
 15 23  1  0
 23 24  1  0
 11  5  1  0
 24 12  1  0
 22 17  1  0
M  END
$$$$
