
     RDKit          3D

 29 31  0  0  0  0  0  0  0  0999 V2000
  -14.7814   47.7425  -22.3960 C   0  0  0  0  0  0  0  0  0  0  0  0
  -13.6417   47.1874  -21.5495 C   0  0  0  0  0  0  0  0  0  0  0  0
  -14.1446   46.0873  -20.6726 C   0  0  0  0  0  0  0  0  0  0  0  0
  -14.6171   46.3281  -19.3994 C   0  0  0  0  0  0  0  0  0  0  0  0
  -15.0808   45.2890  -18.6036 C   0  0  0  0  0  0  0  0  0  0  0  0
  -15.0921   43.9809  -19.0414 C   0  0  0  0  0  0  0  0  0  0  0  0
  -15.5961   42.8951  -18.1608 C   0  0  0  0  0  0  0  0  0  0  0  0
  -17.0399   42.6320  -18.3139 C   0  0  0  0  0  0  0  0  0  0  0  0
  -18.0005   43.2753  -17.5615 C   0  0  0  0  0  0  0  0  0  0  0  0
  -19.3629   43.0144  -17.7143 C   0  0  0  0  0  0  0  0  0  0  0  0
  -19.7965   42.0879  -18.6396 C   0  0  0  0  0  0  0  0  0  0  0  0
  -18.8464   41.4410  -19.3950 C   0  0  0  0  0  0  0  0  0  0  0  0
  -17.5021   41.7102  -19.2322 C   0  0  0  0  0  0  0  0  0  0  0  0
  -19.6087   40.5241  -20.2841 C   0  0  2  0  0  0  0  0  0  0  0  0
  -20.7510   40.2965  -19.5061 O   0  0  0  0  0  0  0  0  0  0  0  0
  -21.1542   41.5737  -19.0475 C   0  0  0  0  0  0  0  0  0  0  0  0
  -19.0127   39.3337  -20.4891 O   0  0  0  0  0  0  0  0  0  0  0  0
  -18.9883   38.7581  -21.7100 C   0  0  2  0  0  0  0  0  0  0  0  0
  -17.8974   37.6764  -21.8224 C   0  0  0  0  0  0  0  0  0  0  0  0
  -16.6416   38.2245  -21.5948 O   0  0  0  0  0  0  0  0  0  0  0  0
  -18.9383   39.6190  -22.9098 C   0  0  1  0  0  0  0  0  0  0  0  0
  -19.8479   39.1321  -23.8697 O   0  0  0  0  0  0  0  0  0  0  0  0
  -19.2099   41.0714  -22.7023 C   0  0  2  0  0  0  0  0  0  0  0  0
  -18.0353   41.8311  -22.6157 O   0  0  0  0  0  0  0  0  0  0  0  0
  -20.0904   41.2413  -21.5109 C   0  0  1  0  0  0  0  0  0  0  0  0
  -21.3608   40.7692  -21.8474 O   0  0  0  0  0  0  0  0  0  0  0  0
  -14.6197   43.7410  -20.3149 C   0  0  0  0  0  0  0  0  0  0  0  0
  -14.1588   44.7731  -21.1056 C   0  0  0  0  0  0  0  0  0  0  0  0
  -17.6918   42.5941  -20.8332 O   0  0  0  0  0  0  0  0  0  0  0  0
  1  2  1  0
  2  3  1  0
  3  4  2  0
  4  5  1  0
  5  6  2  0
  6  7  1  0
  7  8  1  0
  8  9  2  0
  9 10  1  0
 10 11  2  0
 11 12  1  0
 12 13  2  0
 12 14  1  0
 14 15  1  1
 15 16  1  0
 14 17  1  0
 17 18  1  0
 18 19  1  1
 19 20  1  0
 18 21  1  0
 21 22  1  6
 21 23  1  0
 23 24  1  1
 23 25  1  0
 25 26  1  6
  6 27  1  0
 27 28  2  0
 28  3  1  0
 13  8  1  0
 25 14  1  0
 16 11  1  0
M  END
$$$$
