
     RDKit          3D

 28 31  0  0  0  0  0  0  0  0999 V2000
  -24.6178   20.0054  -34.2549 C   0  0  0  0  0  0  0  0  0  0  0  0
  -24.1579   18.8502  -33.4088 C   0  0  0  0  0  0  0  0  0  0  0  0
  -23.0478   19.2767  -32.4775 C   0  0  0  0  0  0  0  0  0  0  0  0
  -25.2915   18.3389  -32.5258 C   0  0  0  0  0  0  0  0  0  0  0  0
  -23.6093   17.5551  -34.5101 S   0  0  0  0  0  6  0  0  0  0  0  0
  -22.9784   16.4318  -33.7599 O   0  0  0  0  0  0  0  0  0  0  0  0
  -24.8057   17.0058  -35.2345 O   0  0  0  0  0  0  0  0  0  0  0  0
  -22.5000   18.2639  -35.6650 C   0  0  0  0  0  0  0  0  0  0  0  0
  -22.9664   18.8976  -36.7814 C   0  0  0  0  0  0  0  0  0  0  0  0
  -22.0451   19.4277  -37.6452 C   0  0  0  0  0  0  0  0  0  0  0  0
  -20.6902   19.3154  -37.3790 C   0  0  0  0  0  0  0  0  0  0  0  0
  -19.7956   19.8446  -38.2421 N   0  0  0  0  0  0  0  0  0  0  0  0
  -18.4850   19.7624  -38.0300 C   0  0  0  0  0  0  0  0  0  0  0  0
  -17.9594   19.1251  -36.9044 C   0  0  0  0  0  0  0  0  0  0  0  0
  -18.8146   18.5748  -36.0028 C   0  0  0  0  0  0  0  0  0  0  0  0
  -18.3580   17.9025  -34.8203 N   0  0  0  0  0  0  0  0  0  0  0  0
  -17.0417   17.5277  -34.5657 C   0  0  0  0  0  0  0  0  0  0  0  0
  -15.9135   17.8993  -35.1577 N   0  0  0  0  0  0  0  0  0  0  0  0
  -14.8544   17.3021  -34.6085 N   0  0  0  0  0  0  0  0  0  0  0  0
  -15.2575   16.5043  -33.6202 C   0  0  0  0  0  0  0  0  0  0  0  0
  -14.6328   15.6683  -32.7311 C   0  0  0  0  0  0  0  0  0  0  0  0
  -15.3861   14.9536  -31.7907 C   0  0  0  0  0  0  0  0  0  0  0  0
  -16.7579   15.0771  -31.7425 C   0  0  0  0  0  0  0  0  0  0  0  0
  -17.4674   14.3775  -30.8259 F   0  0  0  0  0  0  0  0  0  0  0  0
  -17.3601   15.9214  -32.6444 C   0  0  0  0  0  0  0  0  0  0  0  0
  -16.6267   16.6303  -33.5754 C   0  0  0  0  0  0  0  0  0  0  0  0
  -20.1864   18.6763  -36.2514 C   0  0  0  0  0  0  0  0  0  0  0  0
  -21.1279   18.1550  -35.4040 C   0  0  0  0  0  0  0  0  0  0  0  0
  1  2  1  0
  2  3  1  0
  2  4  1  0
  2  5  1  0
  5  6  2  0
  5  7  2  0
  5  8  1  0
  8  9  2  0
  9 10  1  0
 10 11  2  0
 11 12  1  0
 12 13  2  0
 13 14  1  0
 14 15  2  0
 15 16  1  0
 16 17  1  0
 17 18  2  0
 18 19  1  0
 19 20  1  0
 20 21  2  0
 21 22  1  0
 22 23  2  0
 23 24  1  0
 23 25  1  0
 25 26  2  0
 15 27  1  0
 27 28  2  0
 28  8  1  0
 27 11  1  0
 26 17  1  0
 26 20  1  0
M  END
$$$$
