
     RDKit          3D

 22 24  0  0  0  0  0  0  0  0999 V2000
  -20.2740   36.8934  -23.2839 O   0  0  0  0  0  0  0  0  0  0  0  0
  -19.4734   37.8135  -23.0213 C   0  0  0  0  0  0  0  0  0  0  0  0
  -18.2348   37.8262  -23.6143 O   0  0  0  0  0  0  0  0  0  0  0  0
  -19.8416   38.8826  -22.0852 C   0  0  0  0  0  0  0  0  0  0  0  0
  -21.1428   39.0585  -21.6984 C   0  0  0  0  0  0  0  0  0  0  0  0
  -21.4455   40.0734  -20.8186 C   0  0  0  0  0  0  0  0  0  0  0  0
  -20.4589   40.9139  -20.3221 C   0  0  0  0  0  0  0  0  0  0  0  0
  -19.1697   40.7355  -20.7086 C   0  0  0  0  0  0  0  0  0  0  0  0
  -17.8316   41.7206  -20.1608 S   0  0  0  0  0  6  0  0  0  0  0  0
  -16.5517   40.9624  -20.0520 O   0  0  0  0  0  0  0  0  0  0  0  0
  -18.1903   42.0831  -18.7127 O   0  0  0  0  0  0  0  0  0  0  0  0
  -17.6689   43.1612  -21.0476 N   0  0  0  0  0  0  0  0  0  0  0  0
  -18.4992   43.3908  -22.1878 C   0  0  0  0  0  0  0  0  0  0  0  0
  -18.6352   44.8086  -22.6084 C   0  0  0  0  0  0  0  0  0  0  0  0
  -18.2140   45.8107  -21.5591 C   0  0  0  0  0  0  0  0  0  0  0  0
  -16.9488   45.4494  -20.9079 C   0  0  0  0  0  0  0  0  0  0  0  0
  -16.0567   46.4452  -20.5649 C   0  0  0  0  0  0  0  0  0  0  0  0
  -14.8636   46.0683  -19.9484 C   0  0  0  0  0  0  0  0  0  0  0  0
  -14.5986   44.7442  -19.6969 C   0  0  0  0  0  0  0  0  0  0  0  0
  -15.5121   43.7693  -20.0523 C   0  0  0  0  0  0  0  0  0  0  0  0
  -16.7081   44.1201  -20.6676 C   0  0  0  0  0  0  0  0  0  0  0  0
  -18.8542   39.7147  -21.5957 C   0  0  0  0  0  0  0  0  0  0  0  0
  1  2  2  0
  2  3  1  0
  2  4  1  0
  4  5  2  0
  5  6  1  0
  6  7  2  0
  7  8  1  0
  8  9  1  0
  9 10  2  0
  9 11  2  0
  9 12  1  0
 12 13  1  0
 13 14  1  0
 14 15  1  0
 15 16  1  0
 16 17  2  0
 17 18  1  0
 18 19  2  0
 19 20  1  0
 20 21  2  0
  8 22  2  0
 22  4  1  0
 21 12  1  0
 21 16  1  0
M  END
$$$$
