
     RDKit          3D

 31 31  0  0  0  0  0  0  0  0999 V2000
  -22.9194   17.4017  -38.0907 C   0  0  0  0  0  0  0  0  0  0  0  0
  -23.4451   17.4818  -39.4854 C   0  0  0  0  0  0  0  0  0  0  0  0
  -22.9821   18.6819  -40.2488 C   0  0  2  0  0  0  0  0  0  0  0  0
  -23.6100   18.6032  -41.6419 C   0  0  0  0  0  0  0  0  0  0  0  0
  -21.4925   18.7077  -40.3750 C   0  0  0  0  0  0  0  0  0  0  0  0
  -20.7776   17.7923  -39.8723 O   0  0  0  0  0  0  0  0  0  0  0  0
  -20.8196   19.7184  -41.0384 O   0  0  0  0  0  0  0  0  0  0  0  0
  -19.3794   19.7021  -41.1353 C   0  0  1  0  0  0  0  0  0  0  0  0
  -18.9565   19.4494  -42.5627 C   0  0  0  0  0  0  0  0  0  0  0  0
  -17.4128   19.4121  -42.5121 C   0  0  2  0  0  0  0  0  0  0  0  0
  -16.9802   18.5393  -41.5460 O   0  0  0  0  0  0  0  0  0  0  0  0
  -17.0281   20.8394  -42.1977 C   0  0  0  0  0  0  0  0  0  0  0  0
  -17.7201   21.4973  -41.2509 C   0  0  0  0  0  0  0  0  0  0  0  0
  -17.3537   22.8915  -40.9407 C   0  0  0  0  0  0  0  0  0  0  0  0
  -18.3609   23.7265  -40.7529 C   0  0  0  0  0  0  0  0  0  0  0  0
  -19.7119   23.1135  -40.8897 C   0  0  2  0  0  0  0  0  0  0  0  0
  -20.7810   24.1370  -40.8037 C   0  0  0  0  0  0  0  0  0  0  0  0
  -19.8806   21.9082  -40.0403 C   0  0  2  0  0  0  0  0  0  0  0  0
  -19.7617   22.0840  -38.5891 C   0  0  0  0  0  0  0  0  0  0  0  0
  -20.6938   23.0004  -37.9031 C   0  0  0  0  0  0  0  0  0  0  0  0
  -20.3558   22.9916  -36.4237 C   0  0  1  0  0  0  0  0  0  0  0  0
  -19.0402   23.4164  -36.2261 O   0  0  0  0  0  0  0  0  0  0  0  0
  -21.2470   23.9361  -35.6469 C   0  0  0  0  0  0  0  0  0  0  0  0
  -22.6940   23.6032  -35.7482 C   0  0  1  0  0  0  0  0  0  0  0  0
  -22.9604   22.3035  -35.2567 O   0  0  0  0  0  0  0  0  0  0  0  0
  -23.5133   24.5325  -34.9055 C   0  0  0  0  0  0  0  0  0  0  0  0
  -23.4149   25.9548  -35.2704 C   0  0  0  0  0  0  0  0  0  0  0  0
  -22.7715   26.4588  -36.1979 O   0  0  0  0  0  0  0  0  0  0  0  0
  -24.1438   26.8480  -34.4627 O   0  0  0  0  0  1  0  0  0  0  0  0
  -18.8159   20.8880  -40.4721 C   0  0  1  0  0  0  0  0  0  0  0  0
  -20.7934   21.4088  -39.1754 Na  0  0  0  0  0 15  0  0  0  0  0  0
  1  2  1  0
  2  3  1  0
  3  4  1  6
  3  5  1  0
  5  6  2  0
  5  7  1  0
  8  7  1  6
  8  9  1  0
  9 10  1  0
 10 11  1  1
 10 12  1  0
 12 13  2  0
 13 14  1  0
 14 15  2  0
 15 16  1  0
 16 17  1  1
 16 18  1  0
 18 19  1  1
 19 20  1  0
 20 21  1  0
 21 22  1  6
 21 23  1  0
 23 24  1  0
 24 25  1  1
 24 26  1  0
 26 27  1  0
 27 28  2  0
 27 29  1  0
 18 30  1  0
 30  8  1  0
 30 13  1  6
M  CHG  2  29  -1  31   1
M  END
$$$$
