
     RDKit          3D

 11 12  0  0  0  0  0  0  0  0999 V2000
  -23.3342   13.0170  -22.6993 C   0  0  0  0  0  0  0  0  0  0  0  0
  -24.1995   13.2245  -23.7635 C   0  0  0  0  0  0  0  0  0  0  0  0
  -25.0199   14.3210  -23.7690 C   0  0  0  0  0  0  0  0  0  0  0  0
  -24.9983   15.2199  -22.7344 C   0  0  0  0  0  0  0  0  0  0  0  0
  -25.8764   16.3900  -22.7444 C   0  0  0  0  0  0  0  0  0  0  0  0
  -26.8515   16.7164  -23.6601 C   0  0  0  0  0  0  0  0  0  0  0  0
  -27.4272   17.8792  -23.2988 N   0  0  0  0  0  0  0  0  0  0  0  0
  -26.8184   18.2559  -22.1873 N   0  0  0  0  0  0  0  0  0  0  0  0
  -25.8839   17.3698  -21.8428 N   0  0  0  0  0  0  0  0  0  0  0  0
  -24.1438   15.0299  -21.6670 C   0  0  0  0  0  0  0  0  0  0  0  0
  -23.3055   13.9165  -21.6534 C   0  0  0  0  0  0  0  0  0  0  0  0
  1  2  2  0
  2  3  1  0
  3  4  2  0
  4  5  1  0
  5  6  2  0
  6  7  1  0
  7  8  1  0
  8  9  2  0
  4 10  1  0
 10 11  2  0
 11  1  1  0
  9  5  1  0
M  END
$$$$
