
     RDKit          3D

 27 28  0  0  0  0  0  0  0  0999 V2000
  -15.4258   13.8045  -24.5406 C   0  0  0  0  0  0  0  0  0  0  0  0
  -15.3191   13.8905  -26.0395 C   0  0  0  0  0  0  0  0  0  0  0  0
  -15.8751   14.9308  -26.7399 C   0  0  0  0  0  0  0  0  0  0  0  0
  -15.7611   14.9815  -28.1061 C   0  0  0  0  0  0  0  0  0  0  0  0
  -16.3201   16.0383  -28.8716 N   0  0  0  0  0  0  0  0  0  0  0  0
  -17.6579   15.8774  -29.3419 C   0  0  0  0  0  0  0  0  0  0  0  0
  -18.2567   14.8441  -29.0658 O   0  0  0  0  0  0  0  0  0  0  0  0
  -18.3208   16.8556  -30.1104 N   0  0  0  0  0  0  0  0  0  0  0  0
  -19.6037   16.8124  -30.6176 C   0  0  0  0  0  0  0  0  0  0  0  0
  -20.0406   17.9290  -31.3630 C   0  0  0  0  0  0  0  0  0  0  0  0
  -21.2828   18.0181  -31.9203 C   0  0  0  0  0  0  0  0  0  0  0  0
  -22.1905   17.0041  -31.7814 C   0  0  0  0  0  0  0  0  0  0  0  0
  -23.4833   17.0976  -32.3617 N   0  0  0  0  0  0  0  0  0  0  0  0
  -24.4027   16.0034  -32.1873 C   0  0  0  0  0  0  0  0  0  0  0  0
  -23.8755   18.2514  -33.1067 C   0  0  0  0  0  0  0  0  0  0  0  0
  -21.7844   15.8936  -31.0518 C   0  0  0  0  0  0  0  0  0  0  0  0
  -20.5176   15.8269  -30.4956 C   0  0  0  0  0  0  0  0  0  0  0  0
  -15.0771   13.9700  -28.7794 C   0  0  0  0  0  0  0  0  0  0  0  0
  -14.9689   14.0318  -30.1552 C   0  0  0  0  0  0  0  0  0  0  0  0
  -14.2970   13.0421  -30.8397 C   0  0  0  0  0  0  0  0  0  0  0  0
  -14.1747   13.0795  -32.2080 F   0  0  0  0  0  0  0  0  0  0  0  0
  -13.7523   12.0137  -30.1007 C   0  0  0  0  0  0  0  0  0  0  0  0
  -13.8453   11.9283  -28.7345 C   0  0  0  0  0  0  0  0  0  0  0  0
  -13.3208   10.9335  -27.9982 F   0  0  0  0  0  0  0  0  0  0  0  0
  -14.5249   12.9321  -28.0587 C   0  0  0  0  0  0  0  0  0  0  0  0
  -14.6645   12.9312  -26.7353 N   0  0  0  0  0  0  0  0  0  0  0  0
  -19.0363   15.5828  -30.1897 Cl  0  0  0  0  0  0  0  0  0  0  0  0
  1  2  1  0
  2  3  2  0
  3  4  1  0
  4  5  1  0
  5  6  1  0
  6  7  2  0
  6  8  1  0
  8  9  1  0
  9 10  2  0
 10 11  1  0
 11 12  2  0
 12 13  1  0
 13 14  1  0
 13 15  1  0
 12 16  1  0
 16 17  2  0
  4 18  2  0
 18 19  1  0
 19 20  2  0
 20 21  1  0
 20 22  1  0
 22 23  2  0
 23 24  1  0
 23 25  1  0
 25 26  2  0
 26  2  1  0
 17  9  1  0
 25 18  1  0
M  END
$$$$
