
     RDKit          3D

 27 28  0  0  0  0  0  0  0  0999 V2000
  -21.5527   19.1288  -25.7387 N   0  0  0  0  0  0  0  0  0  0  0  0
  -22.4057   19.2754  -24.5774 C   0  0  0  0  0  0  0  0  0  0  0  0
  -23.8139   18.9454  -24.9164 C   0  0  0  0  0  0  0  0  0  0  0  0
  -24.8840   19.7585  -24.3252 C   0  0  0  0  0  0  0  0  0  0  0  0
  -26.1484   19.2589  -24.0213 N   0  0  0  0  0  0  0  0  0  0  0  0
  -26.3549   18.0028  -23.4415 C   0  0  0  0  0  0  0  0  0  0  0  0
  -27.7045   17.5418  -23.0504 C   0  0  0  0  0  0  0  0  0  0  0  0
  -27.8635   16.1002  -22.7281 C   0  0  0  0  0  0  0  0  0  0  0  0
  -29.3202   15.7441  -22.4358 C   0  0  0  0  0  0  0  0  0  0  0  0
  -29.4232   14.3395  -22.0976 N   0  0  0  0  0  0  0  0  0  0  0  0
  -29.8283   13.9972  -20.8077 C   0  0  0  0  0  0  0  0  0  0  0  0
  -31.0886   13.3506  -20.4866 C   0  0  0  0  0  0  0  0  0  0  0  0
  -30.9762   11.9632  -19.8831 C   0  0  0  0  0  0  0  0  0  0  0  0
  -32.3515   11.4358  -19.6912 N   0  0  0  0  0  0  0  0  0  0  0  0
  -32.6101   10.1597  -19.1647 C   0  0  0  0  0  0  0  0  0  0  0  0
  -33.5620    9.5057  -19.6510 O   0  0  0  0  0  0  0  0  0  0  0  0
  -31.7933    9.5852  -18.0345 C   0  0  0  0  0  0  0  0  0  0  0  0
  -32.7118    8.7312  -17.2621 C   0  0  0  0  0  0  0  0  0  0  0  0
  -33.6506    9.4635  -16.5107 C   0  0  0  0  0  0  0  0  0  0  0  0
  -34.4668    8.7820  -15.6584 C   0  0  0  0  0  0  0  0  0  0  0  0
  -34.3780    7.4142  -15.5382 C   0  0  0  0  0  0  0  0  0  0  0  0
  -33.4403    6.7132  -16.2961 C   0  0  0  0  0  0  0  0  0  0  0  0
  -33.3785    5.3327  -16.2194 C   0  0  0  0  0  0  0  0  0  0  0  0
  -32.4854    4.6509  -17.0065 C   0  0  0  0  0  0  0  0  0  0  0  0
  -31.6523    5.3300  -17.8670 C   0  0  0  0  0  0  0  0  0  0  0  0
  -31.6908    6.7054  -17.9627 C   0  0  0  0  0  0  0  0  0  0  0  0
  -32.5920    7.3874  -17.1723 C   0  0  0  0  0  0  0  0  0  0  0  0
  1  2  1  0
  2  3  1  0
  3  4  1  0
  4  5  1  0
  5  6  1  0
  6  7  1  0
  7  8  1  0
  8  9  1  0
  9 10  1  0
 10 11  1  0
 11 12  1  0
 12 13  1  0
 13 14  1  0
 14 15  1  0
 15 16  2  0
 15 17  1  0
 17 18  1  0
 18 19  2  0
 19 20  1  0
 20 21  2  0
 21 22  1  0
 22 23  2  0
 23 24  1  0
 24 25  2  0
 25 26  1  0
 26 27  2  0
 27 18  1  0
 27 22  1  0
M  END
$$$$
