
     RDKit          3D

 23 26  0  0  0  0  0  0  0  0999 V2000
  -22.6493   28.1159  -33.6252 C   0  0  0  0  0  0  0  0  0  0  0  0
  -22.8887   26.9071  -34.3797 N   0  0  0  0  0  0  0  0  0  0  0  0
  -23.8287   26.1041  -33.6381 C   0  0  0  0  0  0  0  0  0  0  0  0
  -25.2289   26.5720  -34.0637 C   0  0  0  0  0  0  0  0  0  0  0  0
  -25.3913   26.0350  -35.3856 N   0  0  0  0  0  0  0  0  0  0  0  0
  -26.6111   25.4622  -35.7677 C   0  0  0  0  0  0  0  0  0  0  0  0
  -26.6720   24.9440  -36.9681 N   0  0  0  0  0  0  0  0  0  0  0  0
  -27.7088   24.2947  -37.6845 C   0  0  0  0  0  0  0  0  0  0  0  0
  -27.3352   24.1015  -39.0113 C   0  0  0  0  0  0  0  0  0  0  0  0
  -28.2002   23.4844  -39.8844 C   0  0  0  0  0  0  0  0  0  0  0  0
  -27.7555   23.2233  -41.5790 Cl  0  0  0  0  0  0  0  0  0  0  0  0
  -29.4245   23.0750  -39.4009 C   0  0  0  0  0  0  0  0  0  0  0  0
  -29.8147   23.2563  -38.0915 C   0  0  0  0  0  0  0  0  0  0  0  0
  -28.9398   23.8763  -37.2235 C   0  0  0  0  0  0  0  0  0  0  0  0
  -29.4319   24.0152  -35.9075 N   0  0  0  0  0  0  0  0  0  0  0  0
  -28.9558   24.8481  -34.8657 C   0  0  0  0  0  0  0  0  0  0  0  0
  -29.8696   24.9965  -33.8448 C   0  0  0  0  0  0  0  0  0  0  0  0
  -29.5336   25.7848  -32.7667 C   0  0  0  0  0  0  0  0  0  0  0  0
  -28.3033   26.4061  -32.7255 C   0  0  0  0  0  0  0  0  0  0  0  0
  -27.3768   26.2694  -33.7371 C   0  0  0  0  0  0  0  0  0  0  0  0
  -27.7055   25.4844  -34.8153 C   0  0  0  0  0  0  0  0  0  0  0  0
  -24.2698   26.1042  -36.2763 C   0  0  0  0  0  0  0  0  0  0  0  0
  -23.3133   27.1408  -35.7264 C   0  0  0  0  0  0  0  0  0  0  0  0
  1  2  1  0
  2  3  1  0
  3  4  1  0
  4  5  1  0
  5  6  1  0
  6  7  2  0
  7  8  1  0
  8  9  2  0
  9 10  1  0
 10 11  1  0
 10 12  2  0
 12 13  1  0
 13 14  2  0
 14 15  1  0
 15 16  1  0
 16 17  2  0
 17 18  1  0
 18 19  2  0
 19 20  1  0
 20 21  2  0
  5 22  1  0
 22 23  1  0
 23  2  1  0
 21  6  1  0
 14  8  1  0
 21 16  1  0
M  END
$$$$
