
     RDKit          3D

 21 24  0  0  0  0  0  0  0  0999 V2000
  -20.2523   38.6470  -18.6943 O   0  0  0  0  0  0  0  0  0  0  0  0
  -20.1330   38.8320  -19.9279 C   0  0  0  0  0  0  0  0  0  0  0  0
  -20.8383   37.9654  -20.8642 C   0  0  0  0  0  0  0  0  0  0  0  0
  -21.6468   36.9305  -20.4378 C   0  0  0  0  0  0  0  0  0  0  0  0
  -22.3217   36.1006  -21.3087 C   0  0  0  0  0  0  0  0  0  0  0  0
  -22.1730   36.3260  -22.6576 C   0  0  0  0  0  0  0  0  0  0  0  0
  -21.3567   37.3711  -23.0977 C   0  0  0  0  0  0  0  0  0  0  0  0
  -20.6877   38.1933  -22.2192 C   0  0  0  0  0  0  0  0  0  0  0  0
  -19.8349   39.2852  -22.6818 C   0  0  0  0  0  0  0  0  0  0  0  0
  -19.7005   39.4890  -23.9051 O   0  0  0  0  0  0  0  0  0  0  0  0
  -19.1201   40.1638  -21.7478 C   0  0  0  0  0  0  0  0  0  0  0  0
  -18.3167   41.1839  -21.8758 O   0  0  0  0  0  0  0  0  0  0  0  0
  -17.9326   41.6372  -20.6933 C   0  0  0  0  0  0  0  0  0  0  0  0
  -17.0411   42.7578  -20.4203 C   0  0  0  0  0  0  0  0  0  0  0  0
  -16.6679   43.0186  -19.1205 C   0  0  0  0  0  0  0  0  0  0  0  0
  -15.8238   44.0751  -18.8371 C   0  0  0  0  0  0  0  0  0  0  0  0
  -15.3240   44.9062  -19.8385 C   0  0  0  0  0  0  0  0  0  0  0  0
  -15.7001   44.6415  -21.1380 C   0  0  0  0  0  0  0  0  0  0  0  0
  -16.5513   43.5720  -21.4003 C   0  0  0  0  0  0  0  0  0  0  0  0
  -18.5298   40.8563  -19.7771 N   0  0  0  0  0  0  0  0  0  0  0  0
  -19.2775   39.9274  -20.3987 C   0  0  0  0  0  0  0  0  0  0  0  0
  1  2  2  0
  2  3  1  0
  3  4  2  0
  4  5  1  0
  5  6  2  0
  6  7  1  0
  7  8  2  0
  8  9  1  0
  9 10  2  0
  9 11  1  0
 11 12  1  0
 12 13  1  0
 13 14  1  0
 14 15  2  0
 15 16  1  0
 16 17  2  0
 17 18  1  0
 18 19  2  0
 13 20  2  0
 20 21  1  0
 21  2  1  0
  8  3  1  0
 21 11  2  0
 19 14  1  0
M  END
$$$$
