
     RDKit          3D

 24 27  0  0  0  0  0  0  0  0999 V2000
  -17.3863   37.4666  -22.8189 O   0  0  0  0  0  0  0  0  0  0  0  0
  -17.6730   38.6871  -22.6989 C   0  0  0  0  0  0  0  0  0  0  0  0
  -16.5977   39.5792  -22.7598 O   0  0  0  0  0  0  0  0  0  0  0  0
  -19.0318   39.1099  -22.5117 C   0  0  0  0  0  0  0  0  0  0  0  0
  -20.1420   38.2882  -22.5272 C   0  0  0  0  0  0  0  0  0  0  0  0
  -21.2523   39.0013  -22.3212 N   0  0  0  0  0  0  0  0  0  0  0  0
  -20.8847   40.2808  -22.1706 C   0  0  0  0  0  0  0  0  0  0  0  0
  -21.6332   41.4146  -21.9375 C   0  0  0  0  0  0  0  0  0  0  0  0
  -21.0079   42.6356  -21.8193 C   0  0  0  0  0  0  0  0  0  0  0  0
  -22.0321   44.0378  -21.5285 Cl  0  0  0  0  0  0  0  0  0  0  0  0
  -19.6414   42.7483  -21.9296 C   0  0  0  0  0  0  0  0  0  0  0  0
  -19.0199   44.0566  -21.7933 C   0  0  0  0  0  0  0  0  0  0  0  0
  -18.8666   44.8918  -22.8681 C   0  0  0  0  0  0  0  0  0  0  0  0
  -18.2644   46.1272  -22.6891 C   0  0  0  0  0  0  0  0  0  0  0  0
  -17.8049   46.5550  -21.4440 C   0  0  0  0  0  0  0  0  0  0  0  0
  -17.1878   47.8729  -21.3726 C   0  0  0  0  0  0  0  0  0  0  0  0
  -16.5874   48.2543  -22.5949 O   0  0  0  0  0  0  0  0  0  0  0  0
  -18.1961   48.9325  -20.9686 C   0  0  0  0  0  0  0  0  0  0  0  0
  -17.2752   49.3873  -19.8463 C   0  0  0  0  0  0  0  0  0  0  0  0
  -16.3502   48.2186  -20.2087 C   0  0  0  0  0  0  0  0  0  0  0  0
  -17.9788   45.6862  -20.3930 C   0  0  0  0  0  0  0  0  0  0  0  0
  -18.5705   44.4586  -20.5400 C   0  0  0  0  0  0  0  0  0  0  0  0
  -18.9155   41.6118  -22.1612 C   0  0  0  0  0  0  0  0  0  0  0  0
  -19.4975   40.3797  -22.2851 C   0  0  0  0  0  0  0  0  0  0  0  0
  1  2  2  0
  2  3  1  0
  2  4  1  0
  4  5  2  0
  5  6  1  0
  6  7  1  0
  7  8  2  0
  8  9  1  0
  9 10  1  0
  9 11  2  0
 11 12  1  0
 12 13  2  0
 13 14  1  0
 14 15  2  0
 15 16  1  0
 16 17  1  0
 16 18  1  0
 18 19  1  0
 19 20  1  0
 15 21  1  0
 21 22  2  0
 11 23  1  0
 23 24  2  0
 24  4  1  0
 24  7  1  0
 22 12  1  0
 20 16  1  0
M  END
$$$$
