
     RDKit          3D

 21 23  0  0  0  0  0  0  0  0999 V2000
  -20.8791   35.6743  -22.3493 C   0  0  0  0  0  0  0  0  0  0  0  0
  -20.6793   36.7021  -23.3152 N   0  0  0  0  0  0  0  0  0  0  0  0
  -21.7992   36.9605  -24.1670 C   0  0  0  0  0  0  0  0  0  0  0  0
  -19.4191   36.6670  -23.9822 C   0  0  0  0  0  0  0  0  0  0  0  0
  -18.5769   37.8961  -23.7312 C   0  0  0  0  0  0  0  0  0  0  0  0
  -18.4908   38.1961  -22.2703 C   0  0  0  0  0  0  0  0  0  0  0  0
  -18.4863   37.2929  -21.2317 C   0  0  0  0  0  0  0  0  0  0  0  0
  -18.3974   37.9821  -20.0805 N   0  0  0  0  0  0  0  0  0  0  0  0
  -18.3456   39.2832  -20.3488 C   0  0  0  0  0  0  0  0  0  0  0  0
  -18.2476   40.4041  -19.5164 C   0  0  0  0  0  0  0  0  0  0  0  0
  -18.2099   41.6513  -20.0920 C   0  0  0  0  0  0  0  0  0  0  0  0
  -18.2672   41.8145  -21.4695 C   0  0  0  0  0  0  0  0  0  0  0  0
  -18.2137   43.1854  -22.0202 C   0  0  0  0  0  0  0  0  0  0  0  0
  -19.5381   43.9110  -21.9158 C   0  0  0  0  0  0  0  0  0  0  0  0
  -19.5149   44.9581  -20.8259 C   0  0  0  0  0  0  0  0  0  0  0  0
  -20.6474   45.7563  -21.2101 O   0  0  0  0  0  0  0  0  0  0  0  0
  -20.4749   45.8767  -22.6062 C   0  0  0  0  0  0  0  0  0  0  0  0
  -20.8977   46.8741  -23.2737 O   0  0  0  0  0  0  0  0  0  0  0  0
  -19.7809   44.7356  -23.0836 N   0  0  0  0  0  0  0  0  0  0  0  0
  -18.3640   40.7047  -22.2879 C   0  0  0  0  0  0  0  0  0  0  0  0
  -18.4024   39.4449  -21.7138 C   0  0  0  0  0  0  0  0  0  0  0  0
  1  2  1  0
  2  3  1  0
  2  4  1  0
  4  5  1  0
  5  6  1  0
  6  7  2  0
  7  8  1  0
  8  9  1  0
  9 10  2  0
 10 11  1  0
 11 12  2  0
 12 13  1  0
 13 14  1  0
 14 15  1  0
 15 16  1  0
 16 17  1  0
 17 18  2  0
 17 19  1  0
 12 20  1  0
 20 21  2  0
 21  6  1  0
 21  9  1  0
 19 14  1  0
M  END
$$$$
