
     RDKit          3D

 30 34  0  0  0  0  0  0  0  0999 V2000
  -16.2543   50.2206  -22.4546 C   0  0  0  0  0  0  0  0  0  0  0  0
  -16.2055   48.7993  -21.9553 C   0  0  0  0  0  0  0  0  0  0  0  0
  -17.2231   47.8912  -21.9937 C   0  0  0  0  0  0  0  0  0  0  0  0
  -16.7981   46.6702  -21.4347 C   0  0  0  0  0  0  0  0  0  0  0  0
  -17.5951   45.5068  -21.3146 N   0  0  0  0  0  0  0  0  0  0  0  0
  -17.6724   44.8620  -20.0127 C   0  0  0  0  0  0  0  0  0  0  0  0
  -18.7857   43.8165  -20.0010 C   0  0  0  0  0  0  0  0  0  0  0  0
  -18.5114   42.8475  -21.0036 N   0  0  0  0  0  0  0  0  0  0  0  0
  -19.4757   41.8376  -21.2182 C   0  0  2  0  0  0  0  0  0  0  0  0
  -20.3783   41.5010  -20.0891 C   0  0  0  0  0  0  0  0  0  0  0  0
  -19.6931   40.3425  -19.4907 N   0  0  0  0  0  0  0  0  0  0  0  0
  -19.6034   39.5090  -20.7024 C   0  0  2  0  0  0  0  0  0  0  0  0
  -18.8638   38.2725  -20.4595 C   0  0  0  0  0  0  0  0  0  0  0  0
  -18.1079   38.2245  -19.4510 O   0  0  0  0  0  0  0  0  0  0  0  0
  -19.0163   37.1833  -21.3506 N   0  0  0  0  0  0  0  0  0  0  0  0
  -19.9017   37.1909  -22.4964 C   0  0  0  0  0  0  0  0  0  0  0  0
  -19.0028   36.9683  -23.7219 C   0  0  0  0  0  0  0  0  0  0  0  0
  -17.9263   35.6446  -23.0328 S   0  0  0  0  0  0  0  0  0  0  0  0
  -18.3227   35.9199  -21.2561 C   0  0  0  0  0  0  0  0  0  0  0  0
  -18.8621   40.4846  -21.6029 C   0  0  0  0  0  0  0  0  0  0  0  0
  -18.0342   43.3719  -22.2394 C   0  0  0  0  0  0  0  0  0  0  0  0
  -18.3580   44.8624  -22.3372 C   0  0  0  0  0  0  0  0  0  0  0  0
  -15.5326   46.9139  -21.0865 N   0  0  0  0  0  0  0  0  0  0  0  0
  -14.6013   46.0373  -20.4749 C   0  0  0  0  0  0  0  0  0  0  0  0
  -14.5333   44.6996  -20.7746 C   0  0  0  0  0  0  0  0  0  0  0  0
  -13.5952   43.9202  -20.1557 C   0  0  0  0  0  0  0  0  0  0  0  0
  -12.7232   44.4379  -19.2464 C   0  0  0  0  0  0  0  0  0  0  0  0
  -12.7792   45.7706  -18.9375 C   0  0  0  0  0  0  0  0  0  0  0  0
  -13.7087   46.5794  -19.5409 C   0  0  0  0  0  0  0  0  0  0  0  0
  -15.1716   48.1682  -21.3891 N   0  0  0  0  0  0  0  0  0  0  0  0
  1  2  1  0
  2  3  1  0
  3  4  2  0
  4  5  1  0
  5  6  1  0
  6  7  1  0
  7  8  1  0
  9  8  1  1
  9 10  1  0
 10 11  1  0
 11 12  1  0
 12 13  1  1
 13 14  2  0
 13 15  1  0
 15 16  1  0
 16 17  1  0
 17 18  1  0
 18 19  1  0
 12 20  1  0
  8 21  1  0
 21 22  1  0
  4 23  1  0
 23 24  1  0
 24 25  2  0
 25 26  1  0
 26 27  2  0
 27 28  1  0
 28 29  2  0
 23 30  1  0
 30  2  2  0
 22  5  1  0
 29 24  1  0
 20  9  1  0
 19 15  1  0
M  END
$$$$
