
     RDKit          3D

 25 28  0  0  0  0  0  0  0  0999 V2000
  -28.8955   23.3722  -33.8202 O   0  0  0  0  0  0  0  0  0  0  0  0
  -28.1568   23.7395  -34.7609 C   0  0  0  0  0  0  0  0  0  0  0  0
  -28.7448   24.1912  -35.9210 C   0  0  0  0  0  0  0  0  0  0  0  0
  -30.1128   24.2330  -36.0297 C   0  0  0  0  0  0  0  0  0  0  0  0
  -30.6885   24.6839  -37.1854 C   0  0  0  0  0  0  0  0  0  0  0  0
  -29.8896   25.0902  -38.2263 C   0  0  0  0  0  0  0  0  0  0  0  0
  -28.5189   25.0499  -38.1215 C   0  0  0  0  0  0  0  0  0  0  0  0
  -27.9205   24.5976  -36.9621 C   0  0  0  0  0  0  0  0  0  0  0  0
  -26.5887   24.5313  -36.7889 N   0  0  0  0  0  0  0  0  0  0  0  0
  -26.0649   24.0780  -35.6241 C   0  0  0  0  0  0  0  0  0  0  0  0
  -24.2957   24.0036  -35.4405 S   0  0  0  0  0  0  0  0  0  0  0  0
  -23.5152   25.2801  -36.4575 C   0  0  0  0  0  0  0  0  0  0  0  0
  -24.0142   26.6401  -36.1495 C   0  0  0  0  0  0  0  0  0  0  0  0
  -24.7076   27.3651  -37.0928 C   0  0  0  0  0  0  0  0  0  0  0  0
  -25.1863   28.6334  -36.8404 C   0  0  0  0  0  0  0  0  0  0  0  0
  -24.9501   29.1729  -35.5933 C   0  0  0  0  0  0  0  0  0  0  0  0
  -24.2587   28.4804  -34.6172 C   0  0  0  0  0  0  0  0  0  0  0  0
  -23.8016   27.2155  -34.9219 C   0  0  0  0  0  0  0  0  0  0  0  0
  -26.8319   23.6802  -34.6054 N   0  0  0  0  0  0  0  0  0  0  0  0
  -26.2773   23.2070  -33.3993 C   0  0  0  0  0  0  0  0  0  0  0  0
  -26.0022   24.0508  -32.3420 C   0  0  0  0  0  0  0  0  0  0  0  0
  -25.4671   23.6107  -31.1588 C   0  0  0  0  0  0  0  0  0  0  0  0
  -25.1849   22.2771  -30.9976 C   0  0  0  0  0  0  0  0  0  0  0  0
  -25.4420   21.3845  -32.0301 C   0  0  0  0  0  0  0  0  0  0  0  0
  -25.9737   21.8611  -33.1888 C   0  0  0  0  0  0  0  0  0  0  0  0
  1  2  2  0
  2  3  1  0
  3  4  2  0
  4  5  1  0
  5  6  2  0
  6  7  1  0
  7  8  2  0
  8  9  1  0
  9 10  2  0
 10 11  1  0
 11 12  1  0
 12 13  1  0
 13 14  2  0
 14 15  1  0
 15 16  2  0
 16 17  1  0
 17 18  2  0
 10 19  1  0
 19 20  1  0
 20 21  2  0
 21 22  1  0
 22 23  2  0
 23 24  1  0
 24 25  2  0
 19  2  1  0
 25 20  1  0
  8  3  1  0
 18 13  1  0
M  END
$$$$
