
     RDKit          3D

 27 28  0  0  0  0  0  0  0  0999 V2000
  -17.3833   33.9448  -22.7097 C   0  0  0  0  0  0  0  0  0  0  0  0
  -18.5818   34.8102  -22.4028 C   0  0  0  0  0  0  0  0  0  0  0  0
  -18.5521   35.3988  -21.2856 O   0  0  0  0  0  0  0  0  0  0  0  0
  -19.6117   34.9308  -23.2920 O   0  0  0  0  0  0  0  0  0  0  0  0
  -20.7311   35.7491  -22.9879 C   0  0  0  0  0  0  0  0  0  0  0  0
  -20.2956   37.1714  -22.7869 C   0  0  0  0  0  0  0  0  0  0  0  0
  -20.4890   37.8091  -21.6479 C   0  0  0  0  0  0  0  0  0  0  0  0
  -21.1309   37.2039  -20.4762 C   0  0  0  0  0  0  0  0  0  0  0  0
  -21.5693   36.0362  -20.4030 O   0  0  0  0  0  0  0  0  0  0  0  0
  -21.2902   37.9636  -19.2991 O   0  0  0  0  0  1  0  0  0  0  0  0
  -20.0843   39.1840  -21.4805 N   0  0  0  0  0  0  0  0  0  0  0  0
  -19.5091   40.1360  -20.6305 C   0  0  0  0  0  0  0  0  0  0  0  0
  -19.0325   40.2051  -19.4770 O   0  0  0  0  0  0  0  0  0  0  0  0
  -19.6780   41.1616  -21.6971 C   0  0  1  0  0  0  0  0  0  0  0  0
  -18.4384   41.7968  -22.0908 N   0  0  0  0  0  0  0  0  0  0  0  0
  -18.2220   43.1186  -21.6383 C   0  0  0  0  0  0  0  0  0  0  0  0
  -19.1036   43.6841  -20.9204 O   0  0  0  0  0  0  0  0  0  0  0  0
  -17.0134   43.9322  -21.9356 C   0  0  0  0  0  0  0  0  0  0  0  0
  -16.2819   44.0696  -20.6399 C   0  0  0  0  0  0  0  0  0  0  0  0
  -15.1976   43.4179  -20.1833 C   0  0  0  0  0  0  0  0  0  0  0  0
  -14.7074   43.6736  -18.9684 C   0  0  0  0  0  0  0  0  0  0  0  0
  -15.3831   44.6479  -18.2116 C   0  0  0  0  0  0  0  0  0  0  0  0
  -16.7006   45.1260  -19.3416 S   0  0  0  0  0  0  0  0  0  0  0  0
  -20.2746   40.1331  -22.5525 C   0  0  1  0  0  0  0  0  0  0  0  0
  -19.3062   39.4826  -23.9236 S   0  0  0  0  0  0  0  0  0  0  0  0
  -19.6079   37.7237  -23.9972 C   0  0  0  0  0  0  0  0  0  0  0  0
  -18.4541   39.5724  -21.7018 Na  0  0  0  0  0 15  0  0  0  0  0  0
  1  2  1  0
  2  3  2  0
  2  4  1  0
  4  5  1  0
  5  6  1  0
  6  7  2  0
  7  8  1  0
  8  9  2  0
  8 10  1  0
  7 11  1  0
 11 12  1  0
 12 13  2  0
 12 14  1  0
 14 15  1  6
 15 16  1  0
 16 17  2  0
 16 18  1  0
 18 19  1  0
 19 20  2  0
 20 21  1  0
 21 22  2  0
 22 23  1  0
 14 24  1  0
 24 25  1  6
 25 26  1  0
 26  6  1  0
 24 11  1  0
 23 19  1  0
M  CHG  2  10  -1  27   1
M  END
$$$$
