
     RDKit          3D

 20 21  0  0  0  0  0  0  0  0999 V2000
  -18.4672   46.0182  -19.6639 C   0  0  0  0  0  0  0  0  0  0  0  0
  -17.4962   45.9568  -20.8190 C   0  0  1  0  0  0  0  0  0  0  0  0
  -16.0827   45.7722  -20.3849 C   0  0  0  0  0  0  0  0  0  0  0  0
  -15.7551   44.4212  -19.8593 C   0  0  2  0  0  0  0  0  0  0  0  0
  -14.2715   44.1638  -20.1560 C   0  0  0  0  0  0  0  0  0  0  0  0
  -16.5863   43.3310  -20.3844 C   0  0  0  0  0  0  0  0  0  0  0  0
  -16.2403   42.1838  -20.1665 O   0  0  0  0  0  0  0  0  0  0  0  0
  -17.8291   43.5323  -21.1685 C   0  0  2  0  0  0  0  0  0  0  0  0
  -18.0899   42.4501  -22.1542 C   0  0  2  0  0  0  0  0  0  0  0  0
  -19.0806   42.8705  -23.0564 O   0  0  0  0  0  0  0  0  0  0  0  0
  -18.5978   41.1759  -21.5231 C   0  0  0  0  0  0  0  0  0  0  0  0
  -18.4402   39.9840  -22.4069 C   0  0  0  0  0  0  0  0  0  0  0  0
  -17.6856   38.8534  -21.8058 C   0  0  0  0  0  0  0  0  0  0  0  0
  -18.4754   38.0547  -20.8419 C   0  0  0  0  0  0  0  0  0  0  0  0
  -17.8625   37.1718  -20.1877 O   0  0  0  0  0  0  0  0  0  0  0  0
  -19.8634   38.2327  -20.6239 N   0  0  0  0  0  0  0  0  0  0  0  0
  -20.5612   39.1065  -21.5095 C   0  0  0  0  0  0  0  0  0  0  0  0
  -21.6970   39.5003  -21.2205 O   0  0  0  0  0  0  0  0  0  0  0  0
  -19.8354   39.4911  -22.7651 C   0  0  0  0  0  0  0  0  0  0  0  0
  -17.8693   44.8920  -21.8254 C   0  0  0  0  0  0  0  0  0  0  0  0
  2  1  1  1
  2  3  1  0
  3  4  1  0
  4  5  1  6
  4  6  1  0
  6  7  2  0
  6  8  1  0
  8  9  1  0
  9 10  1  6
  9 11  1  0
 11 12  1  0
 12 13  1  0
 13 14  1  0
 14 15  2  0
 14 16  1  0
 16 17  1  0
 17 18  2  0
 17 19  1  0
  8 20  1  6
 20  2  1  0
 19 12  1  0
M  END
$$$$
