
     RDKit          3D

 25 26  0  0  0  0  0  0  0  0999 V2000
  -17.3062   38.6649  -28.1456 C   0  0  0  0  0  0  0  0  0  0  0  0
  -18.3364   38.4528  -27.0820 C   0  0  0  0  0  0  0  0  0  0  0  0
  -17.8512   38.9210  -25.7113 C   0  0  0  0  0  0  0  0  0  0  0  0
  -19.0121   38.7172  -24.7595 C   0  0  0  0  0  0  0  0  0  0  0  0
  -18.6393   39.0428  -23.3910 N   0  0  0  0  0  0  0  0  0  0  0  0
  -17.7663   38.1883  -22.6690 C   0  0  0  0  0  0  0  0  0  0  0  0
  -18.3580   36.9300  -22.2183 C   0  0  0  0  0  0  0  0  0  0  0  0
  -19.3889   36.9610  -21.2975 C   0  0  0  0  0  0  0  0  0  0  0  0
  -19.9917   35.8106  -20.8264 C   0  0  0  0  0  0  0  0  0  0  0  0
  -19.5632   34.5571  -21.2806 C   0  0  0  0  0  0  0  0  0  0  0  0
  -20.1974   33.3419  -20.7854 C   0  0  0  0  0  0  0  0  0  0  0  0
  -19.7103   32.2260  -21.1393 O   0  0  0  0  0  0  0  0  0  0  0  0
  -21.3239   33.3220  -19.9332 N   0  0  0  0  0  0  0  0  0  0  0  0
  -21.8940   32.1566  -19.5231 O   0  0  0  0  0  0  0  0  0  0  0  0
  -18.5391   34.5117  -22.1961 C   0  0  0  0  0  0  0  0  0  0  0  0
  -17.9478   35.6984  -22.6548 C   0  0  0  0  0  0  0  0  0  0  0  0
  -19.1534   40.2255  -22.8226 C   0  0  0  0  0  0  0  0  0  0  0  0
  -19.8565   41.0347  -23.5327 O   0  0  0  0  0  0  0  0  0  0  0  0
  -18.9770   40.6526  -21.4805 N   0  0  0  0  0  0  0  0  0  0  0  0
  -19.3845   41.9343  -21.0495 C   0  0  0  0  0  0  0  0  0  0  0  0
  -20.3921   42.6354  -21.6665 C   0  0  0  0  0  0  0  0  0  0  0  0
  -20.7564   43.9021  -21.1988 C   0  0  0  0  0  0  0  0  0  0  0  0
  -20.1212   44.4619  -20.1269 C   0  0  0  0  0  0  0  0  0  0  0  0
  -19.1152   43.7719  -19.5042 C   0  0  0  0  0  0  0  0  0  0  0  0
  -18.7602   42.5156  -19.9749 C   0  0  0  0  0  0  0  0  0  0  0  0
  1  2  1  0
  2  3  1  0
  3  4  1  0
  4  5  1  0
  5  6  1  0
  6  7  1  0
  7  8  2  0
  8  9  1  0
  9 10  2  0
 10 11  1  0
 11 12  2  0
 11 13  1  0
 13 14  1  0
 10 15  1  0
 15 16  2  0
  5 17  1  0
 17 18  2  0
 17 19  1  0
 19 20  1  0
 20 21  2  0
 21 22  1  0
 22 23  2  0
 23 24  1  0
 24 25  2  0
 16  7  1  0
 25 20  1  0
M  END
$$$$
