
     RDKit          3D

 25 26  0  0  0  0  0  0  0  0999 V2000
  -25.6938    1.5692  -30.6573 C   0  0  0  0  0  0  0  0  0  0  0  0
  -24.4619    0.7177  -30.4123 C   0  0  0  0  0  0  0  0  0  0  0  0
  -23.3111    1.4108  -31.0149 C   0  0  0  0  0  0  0  0  0  0  0  0
  -23.5719    2.4397  -31.6973 O   0  0  0  0  0  0  0  0  0  0  0  0
  -21.9959    0.9818  -30.8603 N   0  0  0  0  0  0  0  0  0  0  0  0
  -20.9124    1.7831  -31.4528 C   0  0  0  0  0  0  0  0  0  0  0  0
  -19.6207    1.0027  -31.5298 C   0  0  0  0  0  0  0  0  0  0  0  0
  -19.8436   -0.4137  -32.0087 C   0  0  0  0  0  0  0  0  0  0  0  0
  -18.5775   -1.0986  -32.0217 N   0  0  0  0  0  0  0  0  0  0  0  0
  -17.4452   -0.4071  -32.5641 C   0  0  0  0  0  0  0  0  0  0  0  0
  -17.5541    0.0685  -33.7105 O   0  0  0  0  0  0  0  0  0  0  0  0
  -16.2417   -0.2490  -31.8667 N   0  0  0  0  0  0  0  0  0  0  0  0
  -14.9779    0.0303  -32.3822 C   0  0  0  0  0  0  0  0  0  0  0  0
  -14.7040    0.8086  -33.4536 C   0  0  0  0  0  0  0  0  0  0  0  0
  -13.3802    1.0041  -33.8579 C   0  0  0  0  0  0  0  0  0  0  0  0
  -12.3040    0.4407  -33.2204 C   0  0  0  0  0  0  0  0  0  0  0  0
  -11.0057    0.6617  -33.6560 O   0  0  0  0  0  0  0  0  0  0  0  0
  -10.3028    1.7894  -33.1625 C   0  0  0  0  0  0  0  0  0  0  0  0
  -11.0373    2.9286  -33.4427 F   0  0  0  0  0  0  0  0  0  0  0  0
   -9.0733    1.9126  -33.7635 F   0  0  0  0  0  0  0  0  0  0  0  0
  -10.0923    1.6665  -31.7971 F   0  0  0  0  0  0  0  0  0  0  0  0
  -12.5778   -0.3584  -32.1215 C   0  0  0  0  0  0  0  0  0  0  0  0
  -13.8736   -0.5479  -31.7281 C   0  0  0  0  0  0  0  0  0  0  0  0
  -20.8844   -1.1162  -31.1831 C   0  0  0  0  0  0  0  0  0  0  0  0
  -21.5575   -0.1914  -30.1650 C   0  0  0  0  0  0  0  0  0  0  0  0
  1  2  1  0
  2  3  1  0
  3  4  2  0
  3  5  1  0
  5  6  1  0
  6  7  1  0
  7  8  1  0
  8  9  1  0
  9 10  1  0
 10 11  2  0
 10 12  1  0
 12 13  1  0
 13 14  2  0
 14 15  1  0
 15 16  2  0
 16 17  1  0
 17 18  1  0
 18 19  1  0
 18 20  1  0
 18 21  1  0
 16 22  1  0
 22 23  2  0
  8 24  1  0
 24 25  1  0
 25  5  1  0
 23 13  1  0
M  END
$$$$
