
     RDKit          3D

 16 18  0  0  0  0  0  0  0  0999 V2000
  -27.8363   27.7654  -36.8211 O   0  0  0  0  0  0  0  0  0  0  0  0
  -27.0361   26.8647  -36.3442 C   0  0  0  0  0  0  0  0  0  0  0  0
  -25.8357   27.0762  -35.7611 C   0  0  0  0  0  0  0  0  0  0  0  0
  -25.2420   28.3498  -35.5716 C   0  0  0  0  0  0  0  0  0  0  0  0
  -24.0179   28.4540  -34.9674 C   0  0  0  0  0  0  0  0  0  0  0  0
  -23.2920   27.3702  -34.5122 C   0  0  0  0  0  0  0  0  0  0  0  0
  -23.8755   26.1370  -34.7000 C   0  0  0  0  0  0  0  0  0  0  0  0
  -25.1209   26.0441  -35.3158 C   0  0  0  0  0  0  0  0  0  0  0  0
  -26.1140   24.6391  -35.6941 S   0  0  0  0  0  0  0  0  0  0  0  0
  -27.4522   25.5915  -36.4448 N   0  0  0  0  0  0  0  0  0  0  0  0
  -28.6363   25.0264  -36.9898 C   0  0  0  0  0  0  0  0  0  0  0  0
  -28.6843   23.8254  -37.6473 C   0  0  0  0  0  0  0  0  0  0  0  0
  -29.8709   23.3495  -38.1448 C   0  0  0  0  0  0  0  0  0  0  0  0
  -31.0517   24.0521  -38.0055 C   0  0  0  0  0  0  0  0  0  0  0  0
  -30.9972   25.2612  -37.3423 C   0  0  0  0  0  0  0  0  0  0  0  0
  -29.8037   25.7488  -36.8371 C   0  0  0  0  0  0  0  0  0  0  0  0
  1  2  2  0
  2  3  1  0
  3  4  2  0
  4  5  1  0
  5  6  2  0
  6  7  1  0
  7  8  2  0
  8  9  1  0
  9 10  1  0
 10 11  1  0
 11 12  2  0
 12 13  1  0
 13 14  2  0
 14 15  1  0
 15 16  2  0
 10  2  1  0
 16 11  1  0
  8  3  1  0
M  END
$$$$
