
     RDKit          3D

 35 38  0  0  0  0  0  0  0  0999 V2000
  -23.0355   15.8920  -18.2667 C   0  0  0  0  0  0  0  0  0  0  0  0
  -23.1026   14.9144  -19.4056 C   0  0  0  0  0  0  0  0  0  0  0  0
  -23.2497   13.4900  -18.8636 C   0  0  0  0  0  0  0  0  0  0  0  0
  -24.2968   15.2126  -20.2288 C   0  0  0  0  0  0  0  0  0  0  0  0
  -25.0462   16.1737  -19.8378 O   0  0  0  0  0  0  0  0  0  0  0  0
  -24.6291   14.4672  -21.4294 C   0  0  0  0  0  0  0  0  0  0  0  0
  -24.0948   13.2761  -21.8444 C   0  0  0  0  0  0  0  0  0  0  0  0
  -24.6503   12.8936  -23.0080 N   0  0  0  0  0  0  0  0  0  0  0  0
  -24.3599   11.6990  -23.7713 C   0  0  0  0  0  0  0  0  0  0  0  0
  -25.2388   10.6196  -23.2666 C   0  0  0  0  0  0  0  0  0  0  0  0
  -25.8599   10.7648  -22.2388 O   0  0  0  0  0  0  0  0  0  0  0  0
  -25.3480    9.3611  -24.0357 C   0  0  0  0  0  0  0  0  0  0  0  0
  -26.1825    8.4276  -23.4188 O   0  0  0  0  0  0  0  0  0  0  0  0
  -27.2306    7.7466  -24.0127 C   0  0  0  0  0  0  0  0  0  0  0  0
  -27.1083    6.4776  -24.5287 C   0  0  0  0  0  0  0  0  0  0  0  0
  -28.1683    5.8071  -25.1245 C   0  0  0  0  0  0  0  0  0  0  0  0
  -29.4093    6.3977  -25.2238 C   0  0  0  0  0  0  0  0  0  0  0  0
  -30.4611    5.7259  -25.8182 O   0  0  0  0  0  0  0  0  0  0  0  0
  -30.5883    5.5407  -27.1707 C   0  0  0  0  0  0  0  0  0  0  0  0
  -31.6300    4.7703  -27.6857 C   0  0  0  0  0  0  0  0  0  0  0  0
  -31.7304    4.6021  -29.0607 C   0  0  0  0  0  0  0  0  0  0  0  0
  -30.8275    5.1770  -29.9241 C   0  0  0  0  0  0  0  0  0  0  0  0
  -29.7975    5.9385  -29.4188 C   0  0  0  0  0  0  0  0  0  0  0  0
  -29.6929    6.1105  -28.0327 C   0  0  0  0  0  0  0  0  0  0  0  0
  -29.5478    7.6756  -24.7078 C   0  0  0  0  0  0  0  0  0  0  0  0
  -28.4934    8.3338  -24.1193 C   0  0  0  0  0  0  0  0  0  0  0  0
  -25.5619   13.8387  -23.3700 C   0  0  0  0  0  0  0  0  0  0  0  0
  -26.4090   13.9606  -24.4508 C   0  0  0  0  0  0  0  0  0  0  0  0
  -27.2626   15.0329  -24.6054 C   0  0  0  0  0  0  0  0  0  0  0  0
  -27.2345   16.0028  -23.6110 C   0  0  0  0  0  0  0  0  0  0  0  0
  -28.1200   17.1642  -23.7227 C   0  0  0  0  0  0  0  0  0  0  0  0
  -29.0073   17.2111  -24.6103 O   0  0  0  0  0  0  0  0  0  0  0  0
  -28.0128   18.2444  -22.8614 O   0  0  0  0  0  0  0  0  0  0  0  0
  -26.3996   15.9038  -22.5250 C   0  0  0  0  0  0  0  0  0  0  0  0
  -25.5512   14.8304  -22.3788 C   0  0  0  0  0  0  0  0  0  0  0  0
  1  2  1  0
  2  3  1  0
  2  4  1  0
  4  5  2  0
  4  6  1  0
  6  7  2  0
  7  8  1  0
  8  9  1  0
  9 10  1  0
 10 11  2  0
 10 12  1  0
 12 13  1  0
 13 14  1  0
 14 15  2  0
 15 16  1  0
 16 17  2  0
 17 18  1  0
 18 19  1  0
 19 20  2  0
 20 21  1  0
 21 22  2  0
 22 23  1  0
 23 24  2  0
 17 25  1  0
 25 26  2  0
  8 27  1  0
 27 28  2  0
 28 29  1  0
 29 30  2  0
 30 31  1  0
 31 32  2  0
 31 33  1  0
 30 34  1  0
 34 35  2  0
 35  6  1  0
 26 14  1  0
 35 27  1  0
 24 19  1  0
M  END
$$$$
