
     RDKit          3D

 19 19  0  0  0  0  0  0  0  0999 V2000
  -19.5675   18.2697  -41.2407 C   0  0  0  0  0  0  0  0  0  0  0  0
  -18.2685   18.8783  -40.6931 C   0  0  0  0  0  0  0  0  0  0  0  0
  -17.5042   17.8372  -40.2113 O   0  0  0  0  0  0  0  0  0  0  0  0
  -15.9234   18.2375  -39.8418 P   0  0  0  0  0  5  0  0  0  0  0  0
  -15.1902   19.1060  -41.1417 S   0  0  0  0  0  0  0  0  0  0  0  0
  -14.9878   16.8147  -39.6158 O   0  0  0  0  0  0  0  0  0  0  0  0
  -14.2181   16.9323  -38.4567 C   0  0  0  0  0  0  0  0  0  0  0  0
  -13.5405   15.6537  -38.0889 C   0  0  0  0  0  0  0  0  0  0  0  0
  -15.8257   19.1113  -38.4045 O   0  0  0  0  0  0  0  0  0  0  0  0
  -16.3847   18.8310  -37.1968 C   0  0  0  0  0  0  0  0  0  0  0  0
  -15.7146   18.4974  -36.0470 C   0  0  0  0  0  0  0  0  0  0  0  0
  -16.3861   18.2321  -34.8735 C   0  0  0  0  0  0  0  0  0  0  0  0
  -15.5933   17.8778  -33.6698 C   0  0  0  0  0  0  0  0  0  0  0  0
  -17.7271   18.3114  -34.8927 N   0  0  0  0  0  0  0  0  0  0  0  0
  -18.4215   18.6346  -35.9969 C   0  0  0  0  0  0  0  0  0  0  0  0
  -19.9272   18.7105  -35.9674 C   0  0  0  0  0  0  0  0  0  0  0  0
  -20.3680   18.3862  -34.5479 C   0  0  0  0  0  0  0  0  0  0  0  0
  -20.5077   17.6271  -36.8552 C   0  0  0  0  0  0  0  0  0  0  0  0
  -17.7428   18.8861  -37.1184 N   0  0  0  0  0  0  0  0  0  0  0  0
  1  2  1  0
  2  3  1  0
  3  4  1  0
  4  5  2  0
  4  6  1  0
  6  7  1  0
  7  8  1  0
  4  9  1  0
  9 10  1  0
 10 11  2  0
 11 12  1  0
 12 13  1  0
 12 14  2  0
 14 15  1  0
 15 16  1  0
 16 17  1  0
 16 18  1  0
 15 19  2  0
 19 10  1  0
M  END
$$$$
