
     RDKit          3D

 20 22  0  0  0  0  0  0  0  0999 V2000
  -17.0683   42.1845  -20.3291 N   0  0  0  0  0  0  0  0  0  0  0  0
  -18.1547   41.4141  -19.8456 C   0  0  0  0  0  0  0  0  0  0  0  0
  -18.8318   41.7272  -18.7270 N   0  0  0  0  0  0  0  0  0  0  0  0
  -19.8675   40.9442  -18.3160 C   0  0  0  0  0  0  0  0  0  0  0  0
  -20.2179   39.8608  -19.0202 N   0  0  0  0  0  0  0  0  0  0  0  0
  -19.5846   39.5091  -20.1272 C   0  0  0  0  0  0  0  0  0  0  0  0
  -18.5368   40.2928  -20.5516 C   0  0  0  0  0  0  0  0  0  0  0  0
  -18.0693   39.7097  -21.7011 C   0  0  0  0  0  0  0  0  0  0  0  0
  -16.4459   40.4330  -22.8641 I   0  0  0  0  0  0  0  0  0  0  0  0
  -18.8362   38.5956  -21.9469 C   0  0  0  0  0  0  0  0  0  0  0  0
  -19.7767   38.4803  -20.9606 N   0  0  0  0  0  0  0  0  0  0  0  0
  -20.7265   37.4245  -20.9302 C   0  0  2  0  0  0  0  0  0  0  0  0
  -20.0648   36.2395  -21.2636 O   0  0  0  0  0  0  0  0  0  0  0  0
  -20.5331   35.7953  -22.4603 C   0  0  2  0  0  0  0  0  0  0  0  0
  -19.3609   35.6848  -23.4332 C   0  0  0  0  0  0  0  0  0  0  0  0
  -19.7449   35.0998  -24.6250 O   0  0  0  0  0  0  0  0  0  0  0  0
  -21.6032   36.6979  -22.9675 C   0  0  1  0  0  0  0  0  0  0  0  0
  -22.7594   36.0418  -23.3673 O   0  0  0  0  0  0  0  0  0  0  0  0
  -21.9184   37.5511  -21.7574 C   0  0  1  0  0  0  0  0  0  0  0  0
  -23.0174   36.9362  -21.1088 O   0  0  0  0  0  0  0  0  0  0  0  0
  1  2  1  0
  2  3  2  0
  3  4  1  0
  4  5  2  0
  5  6  1  0
  6  7  2  0
  7  8  1  0
  8  9  1  0
  8 10  2  0
 10 11  1  0
 12 11  1  6
 12 13  1  0
 13 14  1  0
 14 15  1  6
 15 16  1  0
 14 17  1  0
 17 18  1  1
 17 19  1  0
 19 20  1  1
  7  2  1  0
 19 12  1  0
 11  6  1  0
M  END
$$$$
