
     RDKit          3D

 37 40  0  0  0  0  0  0  0  0999 V2000
  -28.8314   21.6091  -28.7608 N   0  0  0  0  0  0  0  0  0  0  0  0
  -27.7729   20.9205  -28.1217 C   0  0  0  0  0  0  0  0  0  0  0  0
  -27.1913   21.3851  -26.9514 C   0  0  0  0  0  0  0  0  0  0  0  0
  -26.1600   20.6951  -26.3474 C   0  0  0  0  0  0  0  0  0  0  0  0
  -25.6564   19.5178  -26.8691 C   0  0  0  0  0  0  0  0  0  0  0  0
  -24.6248   18.8760  -26.2178 O   0  0  0  0  0  0  0  0  0  0  0  0
  -24.8039   17.8594  -25.2882 C   0  0  0  0  0  0  0  0  0  0  0  0
  -25.6149   16.7674  -25.5125 C   0  0  0  0  0  0  0  0  0  0  0  0
  -25.7634   15.7766  -24.5549 C   0  0  0  0  0  0  0  0  0  0  0  0
  -25.1142   15.8297  -23.3385 C   0  0  0  0  0  0  0  0  0  0  0  0
  -25.3140   14.7388  -22.3480 C   0  0  0  0  0  0  0  0  0  0  0  0
  -26.7581   14.4410  -22.1529 C   0  0  0  0  0  0  0  0  0  0  0  0
  -27.7238   15.4064  -21.9584 C   0  0  0  0  0  0  0  0  0  0  0  0
  -29.0631   15.0396  -21.7861 C   0  0  0  0  0  0  0  0  0  0  0  0
  -29.4692   13.7223  -21.8028 C   0  0  0  0  0  0  0  0  0  0  0  0
  -30.8075   13.4040  -21.6279 O   0  0  0  0  0  0  0  0  0  0  0  0
  -31.3372   12.9843  -20.4280 C   0  0  0  0  0  0  0  0  0  0  0  0
  -32.6074   12.4424  -20.3546 C   0  0  0  0  0  0  0  0  0  0  0  0
  -33.1425   12.0191  -19.1468 C   0  0  0  0  0  0  0  0  0  0  0  0
  -32.3822   12.1475  -18.0074 C   0  0  0  0  0  0  0  0  0  0  0  0
  -32.9088   11.7209  -16.7574 N   0  0  0  0  0  0  0  0  0  0  0  0
  -31.1071   12.6848  -18.0403 C   0  0  0  0  0  0  0  0  0  0  0  0
  -30.6102   13.0972  -19.2793 C   0  0  0  0  0  0  0  0  0  0  0  0
  -28.4953   12.7656  -21.9979 C   0  0  0  0  0  0  0  0  0  0  0  0
  -27.1550   13.1318  -22.1704 C   0  0  0  0  0  0  0  0  0  0  0  0
  -24.6606   15.1163  -21.0134 C   0  0  0  0  0  0  0  0  0  0  0  0
  -23.3248   15.3410  -21.1095 F   0  0  0  0  0  0  0  0  0  0  0  0
  -24.8108   13.9699  -20.2175 F   0  0  0  0  0  0  0  0  0  0  0  0
  -25.3756   16.1124  -20.4067 F   0  0  0  0  0  0  0  0  0  0  0  0
  -24.6425   13.4728  -22.7793 C   0  0  0  0  0  0  0  0  0  0  0  0
  -24.6888   12.6105  -21.6718 F   0  0  0  0  0  0  0  0  0  0  0  0
  -25.2511   12.8056  -23.7969 F   0  0  0  0  0  0  0  0  0  0  0  0
  -23.2792   13.6623  -23.0167 F   0  0  0  0  0  0  0  0  0  0  0  0
  -24.3037   16.9231  -23.1170 C   0  0  0  0  0  0  0  0  0  0  0  0
  -24.1552   17.9127  -24.0731 C   0  0  0  0  0  0  0  0  0  0  0  0
  -26.2288   19.0482  -28.0328 C   0  0  0  0  0  0  0  0  0  0  0  0
  -27.2614   19.7436  -28.6332 C   0  0  0  0  0  0  0  0  0  0  0  0
  1  2  1  0
  2  3  2  0
  3  4  1  0
  4  5  2  0
  5  6  1  0
  6  7  1  0
  7  8  2  0
  8  9  1  0
  9 10  2  0
 10 11  1  0
 11 12  1  0
 12 13  2  0
 13 14  1  0
 14 15  2  0
 15 16  1  0
 16 17  1  0
 17 18  2  0
 18 19  1  0
 19 20  2  0
 20 21  1  0
 20 22  1  0
 22 23  2  0
 15 24  1  0
 24 25  2  0
 11 26  1  0
 26 27  1  0
 26 28  1  0
 26 29  1  0
 11 30  1  0
 30 31  1  0
 30 32  1  0
 30 33  1  0
 10 34  1  0
 34 35  2  0
  5 36  1  0
 36 37  2  0
 37  2  1  0
 35  7  1  0
 25 12  1  0
 23 17  1  0
M  END
$$$$
