
     RDKit          3D

 38 43  0  0  0  0  0  0  0  0999 V2000
  -20.5098   39.7957  -19.5049 O   0  0  0  0  0  0  0  0  0  0  0  0
  -19.3892   39.7406  -20.0699 C   0  0  0  0  0  0  0  0  0  0  0  0
  -18.8141   38.4845  -20.1904 O   0  0  0  0  0  0  0  0  0  0  0  0
  -19.4596   37.4282  -20.8352 C   0  0  0  0  0  0  0  0  0  0  0  0
  -19.9805   36.4490  -19.9994 C   0  0  0  0  0  0  0  0  0  0  0  0
  -20.6333   35.3702  -20.5424 C   0  0  0  0  0  0  0  0  0  0  0  0
  -20.7767   35.2487  -21.8990 C   0  0  0  0  0  0  0  0  0  0  0  0
  -21.4553   34.1234  -22.4247 N   0  0  0  0  0  4  0  0  0  0  0  0
  -21.2387   33.7317  -23.5812 O   0  0  0  0  0  0  0  0  0  0  0  0
  -22.3624   33.4596  -21.6456 O   0  0  0  0  0  1  0  0  0  0  0  0
  -20.2482   36.2379  -22.7006 C   0  0  0  0  0  0  0  0  0  0  0  0
  -19.5855   37.3382  -22.2040 C   0  0  0  0  0  0  0  0  0  0  0  0
  -18.7850   40.9244  -20.5423 N   0  0  0  0  0  0  0  0  0  0  0  0
  -17.4567   40.8842  -21.1029 C   0  0  0  0  0  0  0  0  0  0  0  0
  -17.1616   42.0440  -22.0059 C   0  0  0  0  0  0  0  0  0  0  0  0
  -17.5874   43.3699  -21.4591 C   0  0  0  0  0  0  0  0  0  0  0  0
  -16.4118   44.2383  -21.0377 C   0  0  0  0  0  0  0  0  0  0  0  0
  -15.3518   43.8191  -21.8709 O   0  0  0  0  0  0  0  0  0  0  0  0
  -16.6943   45.6732  -21.2690 C   0  0  0  0  0  0  0  0  0  0  0  0
  -16.1353   46.6020  -20.3932 C   0  0  0  0  0  0  0  0  0  0  0  0
  -16.3910   47.9394  -20.5933 C   0  0  0  0  0  0  0  0  0  0  0  0
  -17.1665   48.4330  -21.6051 C   0  0  0  0  0  0  0  0  0  0  0  0
  -17.7193   47.5128  -22.4710 C   0  0  0  0  0  0  0  0  0  0  0  0
  -17.4762   46.1491  -22.2913 C   0  0  0  0  0  0  0  0  0  0  0  0
  -18.4523   48.2365  -23.3982 O   0  0  0  0  0  0  0  0  0  0  0  0
  -18.7478   49.5094  -22.8184 C   0  0  0  0  0  0  0  0  0  0  0  0
  -17.5786   49.7074  -22.0277 O   0  0  0  0  0  0  0  0  0  0  0  0
  -16.0306   43.9942  -19.6359 C   0  0  0  0  0  0  0  0  0  0  0  0
  -16.9093   44.2726  -18.6114 C   0  0  0  0  0  0  0  0  0  0  0  0
  -16.6088   44.0649  -17.2957 C   0  0  0  0  0  0  0  0  0  0  0  0
  -15.3697   43.5505  -16.9367 C   0  0  0  0  0  0  0  0  0  0  0  0
  -14.4735   43.2636  -17.9377 C   0  0  0  0  0  0  0  0  0  0  0  0
  -14.8043   43.4845  -19.2725 C   0  0  0  0  0  0  0  0  0  0  0  0
  -13.3187   42.7663  -17.3357 O   0  0  0  0  0  0  0  0  0  0  0  0
  -13.4153   43.0714  -15.9529 C   0  0  0  0  0  0  0  0  0  0  0  0
  -14.8008   43.2424  -15.7051 O   0  0  0  0  0  0  0  0  0  0  0  0
  -18.4755   43.2528  -20.2439 C   0  0  0  0  0  0  0  0  0  0  0  0
  -19.5050   42.1762  -20.4649 C   0  0  0  0  0  0  0  0  0  0  0  0
  1  2  2  0
  2  3  1  0
  3  4  1  0
  4  5  2  0
  5  6  1  0
  6  7  2  0
  7  8  1  0
  8  9  2  0
  8 10  1  0
  7 11  1  0
 11 12  2  0
  2 13  1  0
 13 14  1  0
 14 15  1  0
 15 16  1  0
 16 17  1  0
 17 18  1  0
 17 19  1  0
 19 20  2  0
 20 21  1  0
 21 22  2  0
 22 23  1  0
 23 24  2  0
 23 25  1  0
 25 26  1  0
 26 27  1  0
 17 28  1  0
 28 29  2  0
 29 30  1  0
 30 31  2  0
 31 32  1  0
 32 33  2  0
 32 34  1  0
 34 35  1  0
 35 36  1  0
 16 37  1  0
 37 38  1  0
 12  4  1  0
 38 13  1  0
 24 19  1  0
 33 28  1  0
 27 22  1  0
 36 31  1  0
M  CHG  2   8   1  10  -1
M  END
$$$$
