
     RDKit          3D

 28 30  0  0  0  0  0  0  0  0999 V2000
  -34.2643   11.2843  -17.0839 C   0  0  0  0  0  0  0  0  0  0  0  0
  -32.9372   11.0993  -17.4278 O   0  0  0  0  0  0  0  0  0  0  0  0
  -32.0684   11.7958  -18.1578 C   0  0  0  0  0  0  0  0  0  0  0  0
  -32.4291   12.9690  -18.8195 C   0  0  0  0  0  0  0  0  0  0  0  0
  -31.5350   13.6962  -19.5761 C   0  0  0  0  0  0  0  0  0  0  0  0
  -30.2313   13.2791  -19.7072 C   0  0  0  0  0  0  0  0  0  0  0  0
  -29.0149   14.0926  -20.6582 S   0  0  0  0  0  6  0  0  0  0  0  0
  -28.8447   15.4902  -20.0967 O   0  0  0  0  0  0  0  0  0  0  0  0
  -27.7248   13.3860  -20.5012 O   0  0  0  0  0  0  0  0  0  0  0  0
  -29.3952   14.1851  -22.3182 N   0  0  0  0  0  0  0  0  0  0  0  0
  -29.7648   12.9788  -23.1020 C   0  0  0  0  0  0  0  0  0  0  0  0
  -29.3559   12.2979  -23.9268 N   0  0  0  0  0  0  0  0  0  0  0  0
  -29.8474   11.2552  -24.5396 C   0  0  0  0  0  0  0  0  0  0  0  0
  -29.1690   10.4730  -25.6215 C   0  0  0  0  0  0  0  0  0  0  0  0
  -27.8911   10.7882  -25.9903 C   0  0  0  0  0  0  0  0  0  0  0  0
  -27.2198   10.0779  -26.9833 C   0  0  0  0  0  0  0  0  0  0  0  0
  -27.8753    9.0368  -27.5994 C   0  0  0  0  0  0  0  0  0  0  0  0
  -29.1590    8.6912  -27.2562 C   0  0  0  0  0  0  0  0  0  0  0  0
  -29.8722    7.6195  -27.8517 N   0  0  0  0  0  4  0  0  0  0  0  0
  -29.4848    7.0469  -28.8776 O   0  0  0  0  0  0  0  0  0  0  0  0
  -31.0499    7.1742  -27.3098 O   0  0  0  0  0  1  0  0  0  0  0  0
  -29.7740    9.4299  -26.2634 C   0  0  0  0  0  0  0  0  0  0  0  0
  -31.1056   10.9338  -24.0801 C   0  0  0  0  0  0  0  0  0  0  0  0
  -31.4402   12.1891  -22.8045 S   0  0  0  0  0  0  0  0  0  0  0  0
  -29.8756   12.1120  -19.0482 C   0  0  0  0  0  0  0  0  0  0  0  0
  -30.7381   11.3946  -18.3063 C   0  0  0  0  0  0  0  0  0  0  0  0
  -30.4058   10.2156  -17.6370 O   0  0  0  0  0  0  0  0  0  0  0  0
  -29.1988    9.5249  -17.8877 C   0  0  0  0  0  0  0  0  0  0  0  0
  1  2  1  0
  2  3  1  0
  3  4  2  0
  4  5  1  0
  5  6  2  0
  6  7  1  0
  7  8  2  0
  7  9  2  0
  7 10  1  0
 10 11  1  0
 11 12  2  0
 12 13  1  0
 13 14  1  0
 14 15  2  0
 15 16  1  0
 16 17  2  0
 17 18  1  0
 18 19  1  0
 19 20  2  0
 19 21  1  0
 18 22  2  0
 13 23  2  0
 23 24  1  0
  6 25  1  0
 25 26  2  0
 26 27  1  0
 27 28  1  0
 26  3  1  0
 24 11  1  0
 22 14  1  0
M  CHG  2  19   1  21  -1
M  END
$$$$
