
     RDKit          3D

 31 34  0  0  0  0  0  0  0  0999 V2000
  -14.1859   42.7967  -18.2642 Cl  0  0  0  0  0  0  0  0  0  0  0  0
  -19.5845   45.6778  -23.8988 C   0  0  0  0  0  0  0  0  0  0  0  0
  -18.9691   44.9374  -22.8197 N   0  0  0  0  0  0  0  0  0  0  0  0
  -19.6113   43.9698  -22.1357 C   0  0  0  0  0  0  0  0  0  0  0  0
  -18.7337   43.4742  -21.1722 C   0  0  0  0  0  0  0  0  0  0  0  0
  -18.9795   42.4064  -20.2085 C   0  0  0  0  0  0  0  0  0  0  0  0
  -19.8806   42.5672  -19.1690 C   0  0  0  0  0  0  0  0  0  0  0  0
  -20.1552   41.6032  -18.2475 C   0  0  0  0  0  0  0  0  0  0  0  0
  -19.5051   40.4133  -18.3577 N   0  0  0  0  0  0  0  0  0  0  0  0
  -18.6154   40.2260  -19.3674 C   0  0  0  0  0  0  0  0  0  0  0  0
  -18.3321   41.1842  -20.2954 C   0  0  0  0  0  0  0  0  0  0  0  0
  -17.5541   44.1847  -21.3131 C   0  0  0  0  0  0  0  0  0  0  0  0
  -16.3773   43.9598  -20.4508 C   0  0  0  0  0  0  0  0  0  0  0  0
  -15.2951   43.2864  -20.9389 C   0  0  0  0  0  0  0  0  0  0  0  0
  -14.1869   43.0635  -20.1505 C   0  0  0  0  0  0  0  0  0  0  0  0
  -14.1280   43.5071  -18.8530 C   0  0  0  0  0  0  0  0  0  0  0  0
  -13.0323   43.2888  -18.0604 O   0  0  0  0  0  0  0  0  0  0  0  0
  -11.9004   42.5815  -18.5203 C   0  0  0  0  0  0  0  0  0  0  0  0
  -10.9013   42.5141  -17.4029 C   0  0  0  0  0  0  0  0  0  0  0  0
   -9.6471   43.0275  -17.5218 C   0  0  0  0  0  0  0  0  0  0  0  0
   -8.7297   42.9297  -16.4705 C   0  0  0  0  0  0  0  0  0  0  0  0
   -9.1023   42.3068  -15.2996 C   0  0  0  0  0  0  0  0  0  0  0  0
   -8.2425   42.1889  -14.2228 C   0  0  0  0  0  0  0  0  0  0  0  0
   -8.6585   41.5733  -13.0833 C   0  0  0  0  0  0  0  0  0  0  0  0
   -9.9272   41.0449  -12.9372 C   0  0  0  0  0  0  0  0  0  0  0  0
  -10.7905   41.1646  -14.0248 C   0  0  0  0  0  0  0  0  0  0  0  0
  -10.3942   41.7863  -15.1977 C   0  0  0  0  0  0  0  0  0  0  0  0
  -11.2266   41.9082  -16.2346 N   0  0  0  0  0  0  0  0  0  0  0  0
  -15.2458   44.1893  -18.3906 C   0  0  0  0  0  0  0  0  0  0  0  0
  -16.3611   44.4252  -19.1519 C   0  0  0  0  0  0  0  0  0  0  0  0
  -17.7390   45.0512  -22.3135 N   0  0  0  0  0  0  0  0  0  0  0  0
  2  3  1  0
  3  4  1  0
  4  5  2  0
  5  6  1  0
  6  7  2  0
  7  8  1  0
  8  9  2  0
  9 10  1  0
 10 11  2  0
  5 12  1  0
 12 13  1  0
 13 14  2  0
 14 15  1  0
 15 16  2  0
 16 17  1  0
 17 18  1  0
 18 19  1  0
 19 20  2  0
 20 21  1  0
 21 22  2  0
 22 23  1  0
 23 24  2  0
 24 25  1  0
 25 26  2  0
 26 27  1  0
 27 28  2  0
 16 29  1  0
 29 30  2  0
 12 31  2  0
 31  3  1  0
 11  6  1  0
 30 13  1  0
 28 19  1  0
 27 22  1  0
M  END
$$$$
