
     RDKit          3D

 30 33  0  0  0  0  0  0  0  0999 V2000
  -24.6148   38.3225  -23.9815 C   0  0  0  0  0  0  0  0  0  0  0  0
  -23.1313   38.0069  -23.8850 C   0  0  1  0  0  0  0  0  0  0  0  0
  -22.8683   36.9790  -22.9862 O   0  0  0  0  0  0  0  0  0  0  0  0
  -21.6187   36.6601  -22.4984 C   0  0  0  0  0  0  0  0  0  0  0  0
  -21.0848   35.4143  -22.3818 C   0  0  0  0  0  0  0  0  0  0  0  0
  -19.8119   35.1527  -21.8797 C   0  0  0  0  0  0  0  0  0  0  0  0
  -19.0358   36.2138  -21.4726 C   0  0  0  0  0  0  0  0  0  0  0  0
  -17.8043   36.3600  -20.9537 N   0  0  0  0  0  0  0  0  0  0  0  0
  -17.5569   37.6461  -20.7456 N   0  0  0  0  0  0  0  0  0  0  0  0
  -18.6002   38.4019  -21.1123 C   0  0  0  0  0  0  0  0  0  0  0  0
  -18.7777   39.8486  -21.0657 C   0  0  0  0  0  0  0  0  0  0  0  0
  -17.8613   40.7004  -21.4881 C   0  0  0  0  0  0  0  0  0  0  0  0
  -18.0701   42.1467  -21.4742 C   0  0  0  0  0  0  0  0  0  0  0  0
  -17.5280   43.0433  -20.5768 C   0  0  0  0  0  0  0  0  0  0  0  0
  -17.9707   44.2796  -20.9146 N   0  0  0  0  0  0  0  0  0  0  0  0
  -18.7621   44.2299  -21.9718 N   0  0  0  0  0  0  0  0  0  0  0  0
  -19.4346   45.3573  -22.6356 C   0  0  0  0  0  0  0  0  0  0  0  0
  -20.1254   46.1920  -21.5864 C   0  0  0  0  0  0  0  0  0  0  0  0
  -20.6523   47.3174  -22.2167 O   0  0  0  0  0  0  0  0  0  0  0  0
  -18.8261   42.9316  -22.3171 C   0  0  0  0  0  0  0  0  0  0  0  0
  -19.5494   37.5090  -21.5767 C   0  0  0  0  0  0  0  0  0  0  0  0
  -20.8123   37.7247  -22.0786 C   0  0  0  0  0  0  0  0  0  0  0  0
  -22.7077   37.6518  -25.2802 C   0  0  0  0  0  0  0  0  0  0  0  0
  -21.7948   38.3957  -25.9957 C   0  0  0  0  0  0  0  0  0  0  0  0
  -21.1107   39.8108  -25.2298 Cl  0  0  0  0  0  0  0  0  0  0  0  0
  -21.4129   38.0619  -27.2745 C   0  0  0  0  0  0  0  0  0  0  0  0
  -21.9666   36.9670  -27.8178 N   0  0  0  0  0  0  0  0  0  0  0  0
  -22.8484   36.2208  -27.1685 C   0  0  0  0  0  0  0  0  0  0  0  0
  -23.2467   36.5405  -25.8781 C   0  0  0  0  0  0  0  0  0  0  0  0
  -24.4076   35.5572  -25.0249 Cl  0  0  0  0  0  0  0  0  0  0  0  0
  2  1  1  6
  2  3  1  0
  3  4  1  0
  4  5  2  0
  5  6  1  0
  6  7  2  0
  7  8  1  0
  8  9  1  0
  9 10  2  0
 10 11  1  0
 11 12  2  0
 12 13  1  0
 13 14  1  0
 14 15  2  0
 15 16  1  0
 16 17  1  0
 17 18  1  0
 18 19  1  0
 16 20  1  0
 10 21  1  0
 21 22  2  0
  2 23  1  0
 23 24  2  0
 24 25  1  0
 24 26  1  0
 26 27  2  0
 27 28  1  0
 28 29  2  0
 29 30  1  0
 22  4  1  0
 29 23  1  0
 21  7  1  0
 20 13  2  0
M  END
$$$$
