
     RDKit          3D

 21 20  0  0  0  0  0  0  0  0999 V2000
  -24.3485   13.2388  -22.3940 C   0  0  0  0  0  0  0  0  0  0  0  0
  -25.3081   13.3496  -23.5228 C   0  0  0  0  0  0  0  0  0  0  0  0
  -26.5031   14.2105  -23.3214 C   0  0  0  0  0  0  0  0  0  0  0  0
  -27.5227   14.2733  -24.3811 C   0  0  0  0  0  0  0  0  0  0  0  0
  -28.6881   15.1553  -24.1168 C   0  0  0  0  0  0  0  0  0  0  0  0
  -29.6439   14.5348  -23.1054 C   0  0  0  0  0  0  0  0  0  0  0  0
  -30.6187   15.4996  -22.5284 C   0  0  0  0  0  0  0  0  0  0  0  0
  -31.4344   14.9039  -21.3967 C   0  0  0  0  0  0  0  0  0  0  0  0
  -30.6560   13.9667  -20.5483 C   0  0  0  0  0  0  0  0  0  0  0  0
  -31.5707   12.8834  -20.0189 C   0  0  0  0  0  0  0  0  0  0  0  0
  -30.8789   11.9460  -19.0949 C   0  0  0  0  0  0  0  0  0  0  0  0
  -31.6579   11.6910  -17.8541 C   0  0  0  0  0  0  0  0  0  0  0  0
  -32.8374   10.8232  -18.0980 C   0  0  0  0  0  0  0  0  0  0  0  0
  -33.2425   10.0256  -16.8715 C   0  0  0  0  0  0  0  0  0  0  0  0
  -34.5135    9.2434  -17.0977 C   0  0  0  0  0  0  0  0  0  0  0  0
  -34.1991    7.7755  -17.1941 C   0  0  0  0  0  0  0  0  0  0  0  0
  -33.6802    7.1402  -16.2445 O   0  0  0  0  0  0  0  0  0  0  0  0
  -34.4910    7.0653  -18.3907 N   0  0  0  0  0  0  0  0  0  0  0  0
  -34.2408    5.6429  -18.5169 C   0  0  0  0  0  0  0  0  0  0  0  0
  -32.7867    5.4176  -18.8519 C   0  0  0  0  0  0  0  0  0  0  0  0
  -32.2845    4.4025  -18.0520 O   0  0  0  0  0  0  0  0  0  0  0  0
  1  2  1  0
  2  3  1  0
  3  4  1  0
  4  5  1  0
  5  6  1  0
  6  7  1  0
  7  8  1  0
  8  9  1  0
  9 10  1  0
 10 11  1  0
 11 12  1  0
 12 13  1  0
 13 14  1  0
 14 15  1  0
 15 16  1  0
 16 17  2  0
 16 18  1  0
 18 19  1  0
 19 20  1  0
 20 21  1  0
M  END
$$$$
