
     RDKit          3D

 28 30  0  0  0  0  0  0  0  0999 V2000
  -29.3376   19.6514  -22.2012 N   0  0  0  0  0  0  0  0  0  0  0  0
  -29.4003   18.2271  -22.3527 C   0  0  0  0  0  0  0  0  0  0  0  0
  -28.9531   17.2236  -22.0301 N   0  0  0  0  0  0  0  0  0  0  0  0
  -29.2080   15.9840  -22.3354 C   0  0  0  0  0  0  0  0  0  0  0  0
  -28.5085   14.7450  -21.8025 C   0  0  0  0  0  0  0  0  0  0  0  0
  -29.4194   13.8647  -21.0590 C   0  0  0  0  0  0  0  0  0  0  0  0
  -30.6581   14.1900  -21.0410 O   0  0  0  0  0  0  0  0  0  0  0  0
  -29.0862   12.6968  -20.3577 N   0  0  0  0  0  0  0  0  0  0  0  0
  -30.0287   12.0230  -19.5403 C   0  0  0  0  0  0  0  0  0  0  0  0
  -29.8728   11.7746  -18.2000 C   0  0  0  0  0  0  0  0  0  0  0  0
  -30.8448   11.1040  -17.4537 C   0  0  0  0  0  0  0  0  0  0  0  0
  -32.0090   10.6604  -18.0340 C   0  0  0  0  0  0  0  0  0  0  0  0
  -33.0332    9.9200  -17.2727 C   0  0  0  0  0  0  0  0  0  0  0  0
  -33.3890    8.6507  -18.0252 C   0  0  0  0  0  0  0  0  0  0  0  0
  -33.9913    7.7297  -17.1499 N   0  0  0  0  0  0  0  0  0  0  0  0
  -34.8737    8.1599  -16.1461 C   0  0  0  0  0  0  0  0  0  0  0  0
  -35.1805    7.1504  -15.1105 C   0  0  2  0  0  0  0  0  0  0  0  0
  -36.4556    6.5843  -15.4367 O   0  0  0  0  0  0  0  0  0  0  0  0
  -35.1930    7.5846  -13.7207 C   0  0  0  0  0  0  0  0  0  0  0  0
  -35.0120    6.6129  -12.7426 C   0  0  0  0  0  0  0  0  0  0  0  0
  -34.9757    6.9835  -11.4287 C   0  0  0  0  0  0  0  0  0  0  0  0
  -35.1167    8.3223  -11.0537 C   0  0  0  0  0  0  0  0  0  0  0  0
  -35.2953    9.2715  -12.0383 C   0  0  0  0  0  0  0  0  0  0  0  0
  -35.3353    8.9269  -13.3570 C   0  0  0  0  0  0  0  0  0  0  0  0
  -32.1695   10.9138  -19.4005 C   0  0  0  0  0  0  0  0  0  0  0  0
  -31.1988   11.5771  -20.1199 C   0  0  0  0  0  0  0  0  0  0  0  0
  -30.2863   15.8759  -23.2817 C   0  0  0  0  0  0  0  0  0  0  0  0
  -30.7356   17.5738  -23.5590 S   0  0  0  0  0  0  0  0  0  0  0  0
  1  2  1  0
  2  3  2  0
  3  4  1  0
  4  5  1  0
  5  6  1  0
  6  7  2  0
  6  8  1  0
  8  9  1  0
  9 10  2  0
 10 11  1  0
 11 12  2  0
 12 13  1  0
 13 14  1  0
 14 15  1  0
 15 16  1  0
 16 17  1  0
 17 18  1  6
 17 19  1  0
 19 20  2  0
 20 21  1  0
 21 22  2  0
 22 23  1  0
 23 24  2  0
 12 25  1  0
 25 26  2  0
  4 27  2  0
 27 28  1  0
 28  2  1  0
 26  9  1  0
 24 19  1  0
M  END
$$$$
