
     RDKit          3D

 29 32  0  0  0  0  0  0  0  0999 V2000
  -18.5286   37.2749  -21.0654 C   0  0  0  0  0  0  0  0  0  0  0  0
  -17.7682   38.5485  -21.2628 C   0  0  0  0  0  0  0  0  0  0  0  0
  -18.6173   39.7664  -21.4347 C   0  0  1  0  0  0  0  0  0  0  0  0
  -17.7798   40.9200  -21.0842 N   0  0  0  0  0  0  0  0  0  0  0  0
  -18.3900   42.0771  -20.4922 C   0  0  0  0  0  0  0  0  0  0  0  0
  -19.5557   42.1113  -20.0703 O   0  0  0  0  0  0  0  0  0  0  0  0
  -17.5734   43.3087  -20.3761 C   0  0  0  0  0  0  0  0  0  0  0  0
  -16.2661   43.3458  -19.9345 C   0  0  0  0  0  0  0  0  0  0  0  0
  -15.8896   44.6867  -19.9958 C   0  0  0  0  0  0  0  0  0  0  0  0
  -14.5755   45.1867  -19.6282 C   0  0  0  0  0  0  0  0  0  0  0  0
  -14.0637   46.0229  -20.4525 O   0  0  0  0  0  0  0  0  0  0  0  0
  -13.8584   44.8272  -18.4797 N   0  0  0  0  0  0  0  0  0  0  0  0
  -12.6627   45.5595  -18.0336 C   0  0  0  0  0  0  0  0  0  0  0  0
  -12.5491   45.1451  -16.5877 C   0  0  0  0  0  0  0  0  0  0  0  0
  -12.8393   43.6434  -16.7225 C   0  0  0  0  0  0  0  0  0  0  0  0
  -14.1280   43.7507  -17.5646 C   0  0  2  0  0  0  0  0  0  0  0  0
  -14.3589   42.4159  -18.1633 C   0  0  0  0  0  0  0  0  0  0  0  0
  -16.9124   45.3959  -20.4464 N   0  0  0  0  0  0  0  0  0  0  0  0
  -17.9396   44.5818  -20.6811 C   0  0  0  0  0  0  0  0  0  0  0  0
  -19.2452   45.1074  -21.1959 C   0  0  0  0  0  0  0  0  0  0  0  0
  -19.5125   46.3868  -20.8020 O   0  0  0  0  0  0  0  0  0  0  0  0
  -18.5484   47.0690  -20.1248 C   0  0  0  0  0  0  0  0  0  0  0  0
  -17.1963   46.8129  -20.7510 C   0  0  0  0  0  0  0  0  0  0  0  0
  -19.0894   39.9620  -22.8321 C   0  0  0  0  0  0  0  0  0  0  0  0
  -18.2628   40.4754  -23.8110 C   0  0  0  0  0  0  0  0  0  0  0  0
  -18.7267   40.6505  -25.0990 C   0  0  0  0  0  0  0  0  0  0  0  0
  -20.0196   40.3268  -25.4684 C   0  0  0  0  0  0  0  0  0  0  0  0
  -20.8446   39.8151  -24.4920 C   0  0  0  0  0  0  0  0  0  0  0  0
  -20.3778   39.6412  -23.2050 C   0  0  0  0  0  0  0  0  0  0  0  0
  1  2  1  0
  3  2  1  6
  3  4  1  0
  4  5  1  0
  5  6  2  0
  5  7  1  0
  7  8  1  0
  8  9  2  0
  9 10  1  0
 10 11  2  0
 10 12  1  0
 12 13  1  0
 13 14  1  0
 14 15  1  0
 15 16  1  0
 16 17  1  6
  9 18  1  0
 18 19  1  0
 19 20  1  0
 20 21  1  0
 21 22  1  0
 22 23  1  0
  3 24  1  0
 24 25  2  0
 25 26  1  0
 26 27  2  0
 27 28  1  0
 28 29  2  0
 19  7  2  0
 29 24  1  0
 16 12  1  0
 23 18  1  0
M  END
$$$$
