
     RDKit          3D

 24 26  0  0  0  0  0  0  0  0999 V2000
  -15.7723   42.9404  -16.1438 N   0  0  0  0  0  0  0  0  0  0  0  0
  -16.1903   43.2628  -17.4492 C   0  0  0  0  0  0  0  0  0  0  0  0
  -16.8653   42.4283  -18.2303 N   0  0  0  0  0  0  0  0  0  0  0  0
  -17.2662   42.7332  -19.4779 C   0  0  0  0  0  0  0  0  0  0  0  0
  -16.9499   44.0033  -19.9728 C   0  0  0  0  0  0  0  0  0  0  0  0
  -17.4513   44.0589  -21.2148 N   0  0  0  0  0  0  0  0  0  0  0  0
  -18.0519   42.8828  -21.4850 C   0  0  0  0  0  0  0  0  0  0  0  0
  -17.9438   42.0640  -20.4271 N   0  0  0  0  0  0  0  0  0  0  0  0
  -18.4573   40.7163  -20.3231 C   0  0  2  0  0  0  0  0  0  0  0  0
  -17.6065   39.8705  -21.0441 O   0  0  0  0  0  0  0  0  0  0  0  0
  -18.3538   38.7617  -21.3873 C   0  0  2  0  0  0  0  0  0  0  0  0
  -17.8279   38.0589  -22.6157 C   0  0  0  0  0  0  0  0  0  0  0  0
  -18.7260   37.1079  -23.0378 O   0  0  0  0  0  0  0  0  0  0  0  0
  -20.0146   36.9019  -21.9673 P   0  0  0  0  0  5  0  0  0  0  0  0
  -21.1152   36.1598  -22.7070 O   0  0  0  0  0  0  0  0  0  0  0  0
  -19.5562   35.9600  -20.6548 O   0  0  0  0  0  1  0  0  0  0  0  0
  -20.6563   38.3949  -21.4763 O   0  0  0  0  0  0  0  0  0  0  0  0
  -19.7136   39.3509  -21.7722 C   0  0  1  0  0  0  0  0  0  0  0  0
  -19.8151   40.5904  -20.9345 C   0  0  1  0  0  0  0  0  0  0  0  0
  -20.8373   40.5349  -19.9973 O   0  0  0  0  0  0  0  0  0  0  0  0
  -16.2437   44.8796  -19.1591 C   0  0  0  0  0  0  0  0  0  0  0  0
  -15.9816   46.0073  -19.6428 O   0  0  0  0  0  0  0  0  0  0  0  0
  -15.8870   44.4885  -17.9312 N   0  0  0  0  0  0  0  0  0  0  0  0
  -18.0699   40.9687  -20.2887 Na  0  0  0  0  0 15  0  0  0  0  0  0
  1  2  1  0
  2  3  2  0
  3  4  1  0
  4  5  2  0
  5  6  1  0
  6  7  2  0
  7  8  1  0
  9  8  1  6
  9 10  1  0
 10 11  1  0
 11 12  1  6
 12 13  1  0
 13 14  1  0
 14 15  2  0
 14 16  1  0
 14 17  1  0
 18 17  1  1
 18 19  1  0
 19 20  1  1
  5 21  1  0
 21 22  2  0
 21 23  1  0
 23  2  1  0
  8  4  1  0
 19  9  1  0
 18 11  1  0
M  CHG  2  16  -1  24   1
M  END
$$$$
