
     RDKit          3D

 20 22  0  0  0  0  0  0  0  0999 V2000
  -24.6088    0.1647  -37.0817 C   0  0  0  0  0  0  0  0  0  0  0  0
  -23.4672    0.5198  -36.1244 C   0  0  0  0  0  0  0  0  0  0  0  0
  -22.2262   -0.2191  -36.4998 C   0  0  0  0  0  0  0  0  0  0  0  0
  -21.1472   -0.1385  -35.6816 O   0  0  0  0  0  0  0  0  0  0  0  0
  -20.0189   -0.8168  -35.4455 C   0  0  0  0  0  0  0  0  0  0  0  0
  -19.6233   -1.9118  -36.1761 C   0  0  0  0  0  0  0  0  0  0  0  0
  -18.4439   -2.5187  -35.8340 C   0  0  0  0  0  0  0  0  0  0  0  0
  -17.6558   -2.0851  -34.8100 C   0  0  0  0  0  0  0  0  0  0  0  0
  -18.0533   -0.9712  -34.0634 C   0  0  0  0  0  0  0  0  0  0  0  0
  -19.2103   -0.3518  -34.3761 C   0  0  0  0  0  0  0  0  0  0  0  0
  -19.6663    0.8281  -33.6125 C   0  0  0  0  0  0  0  0  0  0  0  0
  -19.5493    0.7646  -32.2651 N   0  0  0  0  0  0  0  0  0  0  0  0
  -19.9464    1.8022  -31.5350 C   0  0  0  0  0  0  0  0  0  0  0  0
  -19.9446    2.0070  -30.1864 N   0  0  0  0  0  0  0  0  0  0  0  0
  -20.4518    3.2212  -29.9702 N   0  0  0  0  0  0  0  0  0  0  0  0
  -20.7682    3.7771  -31.1367 N   0  0  0  0  0  0  0  0  0  0  0  0
  -20.4663    2.9202  -32.1309 C   0  0  0  0  0  0  0  0  0  0  0  0
  -20.5774    2.9683  -33.4894 C   0  0  0  0  0  0  0  0  0  0  0  0
  -21.0510    3.9806  -34.0711 O   0  0  0  0  0  0  0  0  0  0  0  0
  -20.1653    1.8928  -34.2378 N   0  0  0  0  0  0  0  0  0  0  0  0
  1  2  1  0
  2  3  1  0
  3  4  1  0
  4  5  1  0
  5  6  2  0
  6  7  1  0
  7  8  2  0
  8  9  1  0
  9 10  2  0
 10 11  1  0
 11 12  2  0
 12 13  1  0
 13 14  1  0
 14 15  2  0
 15 16  1  0
 16 17  1  0
 17 18  1  0
 18 19  2  0
 18 20  1  0
 10  5  1  0
 20 11  1  0
 17 13  2  0
M  END
$$$$
