
     RDKit          3D

 20 22  0  0  0  0  0  0  0  0999 V2000
  -18.4176   45.8224  -20.4645 C   0  0  0  0  0  0  0  0  0  0  0  0
  -17.0179   45.4291  -20.2886 C   0  0  0  0  0  0  0  0  0  0  0  0
  -16.0794   46.1883  -19.6953 N   0  0  0  0  0  0  0  0  0  0  0  0
  -14.9140   45.5532  -19.6917 C   0  0  0  0  0  0  0  0  0  0  0  0
  -13.6752   45.9066  -19.2092 C   0  0  0  0  0  0  0  0  0  0  0  0
  -12.6325   45.0159  -19.3548 C   0  0  0  0  0  0  0  0  0  0  0  0
  -12.8524   43.8134  -19.9696 C   0  0  0  0  0  0  0  0  0  0  0  0
  -14.0815   43.4630  -20.4482 C   0  0  0  0  0  0  0  0  0  0  0  0
  -15.1483   44.3272  -20.3212 C   0  0  0  0  0  0  0  0  0  0  0  0
  -16.4380   44.2558  -20.6851 N   0  0  0  0  0  0  0  0  0  0  0  0
  -17.2570   42.9983  -21.4838 S   0  0  0  0  0  6  0  0  0  0  0  0
  -18.3429   43.6279  -22.3512 O   0  0  0  0  0  0  0  0  0  0  0  0
  -16.3759   42.2401  -22.4347 O   0  0  0  0  0  0  0  0  0  0  0  0
  -18.0480   41.8656  -20.4141 C   0  0  0  0  0  0  0  0  0  0  0  0
  -17.8859   40.4987  -20.4919 C   0  0  0  0  0  0  0  0  0  0  0  0
  -18.5322   39.6272  -19.6310 C   0  0  0  0  0  0  0  0  0  0  0  0
  -19.3741   40.1007  -18.6494 C   0  0  0  0  0  0  0  0  0  0  0  0
  -20.0176   39.2615  -17.7948 F   0  0  0  0  0  0  0  0  0  0  0  0
  -19.5525   41.4578  -18.5507 C   0  0  0  0  0  0  0  0  0  0  0  0
  -18.9082   42.3146  -19.4080 C   0  0  0  0  0  0  0  0  0  0  0  0
  1  2  1  0
  2  3  2  0
  3  4  1  0
  4  5  2  0
  5  6  1  0
  6  7  2  0
  7  8  1  0
  8  9  2  0
  9 10  1  0
 10 11  1  0
 11 12  2  0
 11 13  2  0
 11 14  1  0
 14 15  2  0
 15 16  1  0
 16 17  2  0
 17 18  1  0
 17 19  1  0
 19 20  2  0
 10  2  1  0
 20 14  1  0
  9  4  1  0
M  END
$$$$
