
     RDKit          3D

 20 24  0  0  0  0  0  0  0  0999 V2000
    6.4496   11.0843  -26.6125 C   0  0  0  0  0  0  0  0  0  0  0  0
    5.8827    9.8386  -26.7520 C   0  0  0  0  0  0  0  0  0  0  0  0
    5.6263    9.3520  -28.0491 C   0  0  0  0  0  0  0  0  0  0  0  0
    5.9286   10.0908  -29.1680 C   0  0  0  0  0  0  0  0  0  0  0  0
    6.5061   11.3587  -29.0081 C   0  0  0  0  0  0  0  0  0  0  0  0
    6.7538   11.8274  -27.7325 C   0  0  0  0  0  0  0  0  0  0  0  0
    6.8045   12.0894  -30.1326 C   0  0  0  0  0  0  0  0  0  0  0  0
    6.5706   11.6518  -31.4179 C   0  0  0  0  0  0  0  0  0  0  0  0
    6.8838   12.4143  -32.5273 C   0  0  0  0  0  0  0  0  0  0  0  0
    6.6496   11.9761  -33.8126 C   0  0  0  0  0  0  0  0  0  0  0  0
    6.0799   10.7260  -33.9819 C   0  0  0  0  0  0  0  0  0  0  0  0
    5.8412   10.2783  -35.2770 C   0  0  0  0  0  0  0  0  0  0  0  0
    5.2746    9.0343  -35.4342 C   0  0  0  0  0  0  0  0  0  0  0  0
    4.9613    8.2721  -34.3290 C   0  0  0  0  0  0  0  0  0  0  0  0
    5.2033    8.7269  -33.0374 C   0  0  0  0  0  0  0  0  0  0  0  0
    4.8926    7.9704  -31.9304 C   0  0  0  0  0  0  0  0  0  0  0  0
    5.1302    8.4147  -30.6224 C   0  0  0  0  0  0  0  0  0  0  0  0
    5.6912    9.6454  -30.4500 C   0  0  0  0  0  0  0  0  0  0  0  0
    6.0027   10.4051  -31.5791 C   0  0  0  0  0  0  0  0  0  0  0  0
    5.7702    9.9711  -32.8680 C   0  0  0  0  0  0  0  0  0  0  0  0
  1  2  2  0
  2  3  1  0
  3  4  2  0
  4  5  1  0
  5  6  2  0
  5  7  1  0
  7  8  2  0
  8  9  1  0
  9 10  2  0
 10 11  1  0
 11 12  2  0
 12 13  1  0
 13 14  2  0
 14 15  1  0
 15 16  2  0
 16 17  1  0
 17 18  2  0
 18 19  1  0
 19 20  2  0
  6  1  1  0
 19  8  1  0
 18  4  1  0
 20 11  1  0
 20 15  1  0
M  END
$$$$
