
     RDKit          3D

 20 22  0  0  0  0  0  0  0  0999 V2000
  -18.6442   37.9814  -20.2923 O   0  0  0  0  0  0  0  0  0  0  0  0
  -19.0230   38.1854  -21.4660 C   0  0  0  0  0  0  0  0  0  0  0  0
  -19.1116   37.2042  -22.4194 C   0  0  0  0  0  0  0  0  0  0  0  0
  -18.7451   35.8350  -22.0571 C   0  0  0  0  0  0  0  0  0  0  0  0
  -19.7202   34.8716  -21.8681 C   0  0  0  0  0  0  0  0  0  0  0  0
  -19.4302   33.5697  -21.5267 C   0  0  0  0  0  0  0  0  0  0  0  0
  -18.1078   33.2352  -21.3723 C   0  0  0  0  0  0  0  0  0  0  0  0
  -17.7874   31.9271  -21.0278 O   0  0  0  0  0  0  0  0  0  0  0  0
  -17.1041   34.1693  -21.5525 C   0  0  0  0  0  0  0  0  0  0  0  0
  -17.4195   35.4679  -21.8944 C   0  0  0  0  0  0  0  0  0  0  0  0
  -19.5431   37.5661  -23.6712 C   0  0  0  0  0  0  0  0  0  0  0  0
  -19.8661   38.8016  -23.9717 O   0  0  0  0  0  0  0  0  0  0  0  0
  -19.8018   39.7911  -23.0966 C   0  0  0  0  0  0  0  0  0  0  0  0
  -20.1471   41.0833  -23.4367 C   0  0  0  0  0  0  0  0  0  0  0  0
  -20.5719   41.3443  -24.7320 O   0  0  0  0  0  0  0  0  0  0  0  0
  -20.0798   42.1148  -22.5236 C   0  0  0  0  0  0  0  0  0  0  0  0
  -20.4243   43.4296  -22.8462 O   0  0  0  0  0  0  0  0  0  0  0  0
  -19.6479   41.7832  -21.2504 C   0  0  0  0  0  0  0  0  0  0  0  0
  -19.3025   40.5096  -20.8978 C   0  0  0  0  0  0  0  0  0  0  0  0
  -19.3741   39.4849  -21.8213 C   0  0  0  0  0  0  0  0  0  0  0  0
  1  2  2  0
  2  3  1  0
  3  4  1  0
  4  5  2  0
  5  6  1  0
  6  7  2  0
  7  8  1  0
  7  9  1  0
  9 10  2  0
  3 11  2  0
 11 12  1  0
 12 13  1  0
 13 14  2  0
 14 15  1  0
 14 16  1  0
 16 17  1  0
 16 18  2  0
 18 19  1  0
 19 20  2  0
 20  2  1  0
 10  4  1  0
 20 13  1  0
M  END
$$$$
