
     RDKit          3D

 27 32  0  0  0  0  0  0  0  0999 V2000
  -19.1230   45.1943  -21.0710 C   0  0  0  0  0  0  0  0  0  0  0  0
  -18.6418   44.1435  -21.9419 N   0  0  0  0  0  0  0  0  0  0  0  0
  -17.8458   44.6436  -23.0299 C   0  0  0  0  0  0  0  0  0  0  0  0
  -16.3702   44.5937  -22.8321 C   0  0  0  0  0  0  0  0  0  0  0  0
  -15.9940   44.5527  -21.3960 C   0  0  0  0  0  0  0  0  0  0  0  0
  -14.9121   45.2216  -20.8709 C   0  0  0  0  0  0  0  0  0  0  0  0
  -14.6061   45.1550  -19.5183 C   0  0  0  0  0  0  0  0  0  0  0  0
  -15.4180   44.3963  -18.7031 C   0  0  0  0  0  0  0  0  0  0  0  0
  -16.5250   43.7069  -19.2171 C   0  0  0  0  0  0  0  0  0  0  0  0
  -16.8056   43.7866  -20.5468 C   0  0  0  0  0  0  0  0  0  0  0  0
  -17.9285   43.1159  -21.2047 C   0  0  1  0  0  0  0  0  0  0  0  0
  -18.7977   42.2748  -20.3601 C   0  0  2  0  0  0  0  0  0  0  0  0
  -18.0478   41.6908  -19.3273 O   0  0  0  0  0  0  0  0  0  0  0  0
  -17.9704   40.3329  -19.4118 C   0  0  0  0  0  0  0  0  0  0  0  0
  -17.3466   39.6038  -18.5885 O   0  0  0  0  0  0  0  0  0  0  0  0
  -18.7217   39.9207  -20.5933 C   0  0  0  0  0  0  0  0  0  0  0  0
  -19.2133   41.0768  -21.1564 C   0  0  0  0  0  0  0  0  0  0  0  0
  -19.9769   40.9388  -22.3160 C   0  0  0  0  0  0  0  0  0  0  0  0
  -20.2103   39.6889  -22.8482 C   0  0  0  0  0  0  0  0  0  0  0  0
  -19.7227   38.5410  -22.2898 C   0  0  0  0  0  0  0  0  0  0  0  0
  -18.9671   38.6617  -21.1449 C   0  0  0  0  0  0  0  0  0  0  0  0
  -18.5677   37.3861  -20.7369 O   0  0  0  0  0  0  0  0  0  0  0  0
  -19.4452   36.4676  -21.3581 C   0  0  0  0  0  0  0  0  0  0  0  0
  -19.7680   37.1799  -22.5580 O   0  0  0  0  0  0  0  0  0  0  0  0
  -14.9682   44.4420  -17.3907 O   0  0  0  0  0  0  0  0  0  0  0  0
  -13.7156   45.1149  -17.4264 C   0  0  0  0  0  0  0  0  0  0  0  0
  -13.6174   45.6957  -18.7067 O   0  0  0  0  0  0  0  0  0  0  0  0
  1  2  1  0
  2  3  1  0
  3  4  1  0
  4  5  1  0
  5  6  2  0
  6  7  1  0
  7  8  2  0
  8  9  1  0
  9 10  2  0
 10 11  1  0
 11 12  1  0
 12 13  1  1
 13 14  1  0
 14 15  2  0
 14 16  1  0
 16 17  2  0
 17 18  1  0
 18 19  2  0
 19 20  1  0
 20 21  2  0
 21 22  1  0
 22 23  1  0
 23 24  1  0
  8 25  1  0
 25 26  1  0
 26 27  1  0
 11  2  1  1
 17 12  1  0
 24 20  1  0
 10  5  1  0
 21 16  1  0
 27  7  1  0
M  END
$$$$
