
     RDKit          3D

 15 15  0  0  0  0  0  0  0  0999 V2000
  -17.6193   39.4667  -23.8357 N   0  0  0  0  0  0  0  0  0  0  0  0
  -19.0340   39.3142  -24.1057 C   0  0  0  0  0  0  0  0  0  0  0  0
  -19.6995   38.7923  -22.8508 C   0  0  0  0  0  0  0  0  0  0  0  0
  -19.1843   37.4516  -22.4664 C   0  0  0  0  0  0  0  0  0  0  0  0
  -19.8296   36.2955  -22.8560 C   0  0  0  0  0  0  0  0  0  0  0  0
  -19.3651   35.0417  -22.5081 C   0  0  0  0  0  0  0  0  0  0  0  0
  -20.0204   33.8782  -22.9042 O   0  0  0  0  0  0  0  0  0  0  0  0
  -18.2258   34.8842  -21.7491 C   0  0  0  0  0  0  0  0  0  0  0  0
  -17.7455   33.6213  -21.3904 O   0  0  0  0  0  0  0  0  0  0  0  0
  -17.5733   36.0328  -21.3544 C   0  0  0  0  0  0  0  0  0  0  0  0
  -18.0438   37.2914  -21.7065 C   0  0  0  0  0  0  0  0  0  0  0  0
  -17.3644   38.4397  -21.2940 O   0  0  0  0  0  0  0  0  0  0  0  0
  -19.6553   40.6059  -24.4398 C   0  0  0  0  0  0  0  0  0  0  0  0
  -19.0915   41.6750  -24.1215 O   0  0  0  0  0  0  0  0  0  0  0  0
  -20.8635   40.6662  -25.1059 O   0  0  0  0  0  0  0  0  0  0  0  0
  1  2  1  0
  2  3  1  0
  3  4  1  0
  4  5  2  0
  5  6  1  0
  6  7  1  0
  6  8  2  0
  8  9  1  0
  8 10  1  0
 10 11  2  0
 11 12  1  0
  2 13  1  0
 13 14  2  0
 13 15  1  0
 11  4  1  0
M  END
$$$$
