
     RDKit          3D

 25 28  0  0  0  0  0  0  0  0999 V2000
  -18.7729   42.9407  -25.3652 N   0  0  0  0  0  0  0  0  0  0  0  0
  -18.9323   42.3788  -24.3703 C   0  0  0  0  0  0  0  0  0  0  0  0
  -19.1092   41.6635  -23.1206 C   0  0  0  0  0  0  0  0  0  0  0  0
  -20.0731   40.6848  -23.0318 C   0  0  0  0  0  0  0  0  0  0  0  0
  -20.2567   39.9835  -21.8464 C   0  0  0  0  0  0  0  0  0  0  0  0
  -19.4780   40.2494  -20.7278 C   0  0  0  0  0  0  0  0  0  0  0  0
  -19.4328   39.7392  -19.4757 N   0  0  0  0  0  0  0  0  0  0  0  0
  -18.4983   40.3266  -18.7452 C   0  0  0  0  0  0  0  0  0  0  0  0
  -18.1169   40.1134  -17.4242 O   0  0  0  0  0  0  0  0  0  0  0  0
  -17.9004   41.2756  -19.5725 C   0  0  0  0  0  0  0  0  0  0  0  0
  -16.8185   42.1971  -19.2766 C   0  0  0  0  0  0  0  0  0  0  0  0
  -16.8146   43.5029  -19.7210 C   0  0  0  0  0  0  0  0  0  0  0  0
  -15.7506   44.3597  -19.4110 C   0  0  0  0  0  0  0  0  0  0  0  0
  -14.6901   43.9051  -18.6545 C   0  0  0  0  0  0  0  0  0  0  0  0
  -13.5943   44.8216  -18.3454 C   0  0  0  0  0  0  0  0  0  0  0  0
  -13.7415   45.4987  -17.0715 N   0  0  0  0  0  0  0  0  0  0  0  0
  -14.0088   46.8966  -17.2257 C   0  0  0  0  0  0  0  0  0  0  0  0
  -13.8796   47.7173  -15.9911 C   0  0  0  0  0  0  0  0  0  0  0  0
  -12.8177   47.4132  -15.1770 O   0  0  0  0  0  0  0  0  0  0  0  0
  -12.6953   46.0425  -14.9369 C   0  0  0  0  0  0  0  0  0  0  0  0
  -12.5229   45.3635  -16.2722 C   0  0  0  0  0  0  0  0  0  0  0  0
  -14.7388   42.5893  -18.2321 C   0  0  0  0  0  0  0  0  0  0  0  0
  -15.7831   41.7765  -18.5459 N   0  0  0  0  0  0  0  0  0  0  0  0
  -18.5124   41.2314  -20.8201 C   0  0  0  0  0  0  0  0  0  0  0  0
  -18.3391   41.9254  -22.0115 C   0  0  0  0  0  0  0  0  0  0  0  0
  1  2  3  0
  2  3  1  0
  3  4  2  0
  4  5  1  0
  5  6  2  0
  6  7  1  0
  7  8  1  0
  8  9  1  0
  8 10  2  0
 10 11  1  0
 11 12  2  0
 12 13  1  0
 13 14  2  0
 14 15  1  0
 15 16  1  0
 16 17  1  0
 17 18  1  0
 18 19  1  0
 19 20  1  0
 20 21  1  0
 14 22  1  0
 22 23  2  0
 10 24  1  0
 24 25  2  0
 25  3  1  0
 24  6  1  0
 23 11  1  0
 21 16  1  0
M  END
$$$$
