
     RDKit          3D

 22 24  0  0  0  0  0  0  0  0999 V2000
  -18.5013   41.5197  -21.5277 Cl  0  0  0  0  0  0  0  0  0  0  0  0
  -19.3128   45.8488  -22.4953 C   0  0  0  0  0  0  0  0  0  0  0  0
  -18.3923   44.8985  -21.8697 N   0  0  0  0  0  0  0  0  0  0  0  0
  -18.5368   43.5461  -21.8738 C   0  0  0  0  0  0  0  0  0  0  0  0
  -17.4989   42.9419  -21.1977 C   0  0  0  0  0  0  0  0  0  0  0  0
  -17.2631   41.5254  -20.9608 C   0  0  0  0  0  0  0  0  0  0  0  0
  -16.2084   41.2336  -20.2858 O   0  0  0  0  0  0  0  0  0  0  0  0
  -18.1241   40.4407  -21.4275 C   0  0  2  0  0  0  0  0  0  0  0  0
  -18.2963   40.3098  -22.8944 C   0  0  0  0  0  0  0  0  0  0  0  0
  -19.5336   39.5565  -23.2557 C   0  0  0  0  0  0  0  0  0  0  0  0
  -20.0039   38.5931  -22.2324 C   0  0  0  0  0  0  0  0  0  0  0  0
  -20.4738   37.3302  -22.1902 N   0  0  0  0  0  0  0  0  0  0  0  0
  -20.7472   36.9973  -20.9219 C   0  0  0  0  0  0  0  0  0  0  0  0
  -20.4377   38.0836  -20.1609 N   0  0  0  0  0  0  0  0  0  0  0  0
  -19.9886   39.0540  -20.9324 C   0  0  0  0  0  0  0  0  0  0  0  0
  -19.4990   40.4248  -20.7515 C   0  0  0  0  0  0  0  0  0  0  0  0
  -16.6966   44.0111  -20.7714 C   0  0  0  0  0  0  0  0  0  0  0  0
  -15.5347   44.0412  -20.0588 C   0  0  0  0  0  0  0  0  0  0  0  0
  -14.9675   45.2916  -19.7883 C   0  0  0  0  0  0  0  0  0  0  0  0
  -15.5279   46.4774  -20.2072 C   0  0  0  0  0  0  0  0  0  0  0  0
  -16.7060   46.4179  -20.9279 C   0  0  0  0  0  0  0  0  0  0  0  0
  -17.2694   45.1913  -21.1975 C   0  0  0  0  0  0  0  0  0  0  0  0
  2  3  1  0
  3  4  1  0
  4  5  2  0
  5  6  1  0
  6  7  2  0
  8  6  1  6
  8  9  1  0
  9 10  1  0
 10 11  1  0
 11 12  1  0
 12 13  2  0
 13 14  1  0
 14 15  1  0
 15 16  1  0
  5 17  1  0
 17 18  2  0
 18 19  1  0
 19 20  2  0
 20 21  1  0
 21 22  2  0
 22  3  1  0
 16  8  1  0
 22 17  1  0
 15 11  2  0
M  END
$$$$
