
     RDKit          3D

 30 32  0  0  0  0  0  0  0  0999 V2000
  -21.5703   38.9028  -23.6135 C   0  0  0  0  0  0  0  0  0  0  0  0
  -21.1127   38.3986  -22.4706 O   0  0  0  0  0  0  0  0  0  0  0  0
  -20.4541   38.5994  -21.3461 C   0  0  0  0  0  0  0  0  0  0  0  0
  -19.6384   39.6296  -20.9760 C   0  0  0  0  0  0  0  0  0  0  0  0
  -18.9473   39.7476  -19.7994 C   0  0  0  0  0  0  0  0  0  0  0  0
  -18.0700   40.8266  -19.5929 N   0  0  0  0  0  0  0  0  0  0  0  0
  -17.9836   41.9288  -20.4079 C   0  0  0  0  0  0  0  0  0  0  0  0
  -18.8603   42.1523  -21.5432 C   0  0  0  0  0  0  0  0  0  0  0  0
  -18.6255   43.2824  -22.0728 N   0  0  0  0  0  0  0  0  0  0  0  0
  -17.9630   44.3194  -22.0654 C   0  0  0  0  0  0  0  0  0  0  0  0
  -17.6456   45.3976  -22.6066 C   0  0  0  0  0  0  0  0  0  0  0  0
  -17.2678   46.6016  -23.2253 N   0  0  0  0  0  0  0  0  0  0  0  0
  -16.9403   44.0849  -20.7639 C   0  0  0  0  0  0  0  0  0  0  0  0
  -16.1198   45.0986  -20.5266 O   0  0  0  0  0  0  0  0  0  0  0  0
  -16.0381   45.6800  -19.2160 C   0  0  2  0  0  0  0  0  0  0  0  0
  -16.0981   47.2317  -19.4907 C   0  0  0  0  0  0  0  0  0  0  0  0
  -14.8582   45.3406  -18.4324 C   0  0  0  0  0  0  0  0  0  0  0  0
  -13.5941   45.6142  -19.0280 N   0  0  0  0  0  0  0  0  0  0  0  0
  -13.0756   44.6773  -19.9466 C   0  0  0  0  0  0  0  0  0  0  0  0
  -13.0680   46.9168  -18.9963 C   0  0  0  0  0  0  0  0  0  0  0  0
  -17.1886   42.9699  -20.2563 N   0  0  0  0  0  0  0  0  0  0  0  0
  -19.0834   38.7440  -18.8826 N   0  0  0  0  0  0  0  0  0  0  0  0
  -19.8755   37.7033  -19.1609 C   0  0  0  0  0  0  0  0  0  0  0  0
  -20.5516   37.5939  -20.3472 C   0  0  0  0  0  0  0  0  0  0  0  0
  -21.3499   36.4169  -20.6917 C   0  0  0  0  0  0  0  0  0  0  0  0
  -21.8547   35.9703  -21.8856 C   0  0  0  0  0  0  0  0  0  0  0  0
  -22.4750   34.8362  -21.6774 N   0  0  0  0  0  0  0  0  0  0  0  0
  -22.4238   34.4757  -20.3956 N   0  0  0  0  0  0  0  0  0  0  0  0
  -22.9891   33.2654  -19.8070 C   0  0  0  0  0  0  0  0  0  0  0  0
  -21.7246   35.4546  -19.7552 C   0  0  0  0  0  0  0  0  0  0  0  0
  1  2  1  0
  2  3  1  0
  3  4  2  0
  4  5  1  0
  5  6  1  0
  6  7  1  0
  7  8  2  0
  8  9  1  0
  9 10  2  0
 10 11  1  0
 11 12  3  0
 10 13  1  0
 13 14  1  0
 14 15  1  0
 15 16  1  6
 15 17  1  0
 17 18  1  0
 18 19  1  0
 18 20  1  0
 13 21  2  0
  5 22  2  0
 22 23  1  0
 23 24  2  0
 24 25  1  0
 25 26  1  0
 26 27  2  0
 27 28  1  0
 28 29  1  0
 28 30  1  0
 24  3  1  0
 30 25  2  0
 21  7  1  0
M  END
$$$$
