
     RDKit          3D

 26 29  0  0  0  0  0  0  0  0999 V2000
  -17.9836   41.4389  -25.2791 O   0  0  0  0  0  0  0  0  0  0  0  0
  -18.5947   42.4241  -24.8137 C   0  0  0  0  0  0  0  0  0  0  0  0
  -19.1572   42.3125  -23.4934 N   0  0  0  0  0  0  0  0  0  0  0  0
  -18.6114   41.3624  -22.6223 C   0  0  0  0  0  0  0  0  0  0  0  0
  -18.7565   39.9997  -23.0278 C   0  0  0  0  0  0  0  0  0  0  0  0
  -18.3869   38.9605  -22.2216 C   0  0  0  0  0  0  0  0  0  0  0  0
  -18.5440   37.2802  -22.6716 Cl  0  0  0  0  0  0  0  0  0  0  0  0
  -17.8558   39.2476  -20.9732 C   0  0  0  0  0  0  0  0  0  0  0  0
  -17.7179   40.5396  -20.5933 C   0  0  0  0  0  0  0  0  0  0  0  0
  -18.0935   41.6590  -21.4163 C   0  0  0  0  0  0  0  0  0  0  0  0
  -17.7359   42.9448  -20.9029 C   0  0  0  0  0  0  0  0  0  0  0  0
  -16.4381   43.0695  -20.4334 N   0  0  0  0  0  0  0  0  0  0  0  0
  -15.8974   44.1790  -19.9771 C   0  0  0  0  0  0  0  0  0  0  0  0
  -14.5766   44.1808  -19.5236 C   0  0  0  0  0  0  0  0  0  0  0  0
  -14.0243   45.3387  -19.0459 C   0  0  0  0  0  0  0  0  0  0  0  0
  -14.7611   46.5021  -19.0092 C   0  0  0  0  0  0  0  0  0  0  0  0
  -16.0687   46.4913  -19.4605 C   0  0  0  0  0  0  0  0  0  0  0  0
  -16.6358   45.3344  -19.9428 C   0  0  0  0  0  0  0  0  0  0  0  0
  -17.8854   45.2921  -20.3779 N   0  0  0  0  0  0  0  0  0  0  0  0
  -18.4234   44.0907  -20.8569 C   0  0  0  0  0  0  0  0  0  0  0  0
  -19.7127   44.1864  -21.2848 O   0  0  0  0  0  0  0  0  0  0  0  0
  -18.7146   43.6227  -25.6024 C   0  0  0  0  0  0  0  0  0  0  0  0
  -19.1218   44.8735  -25.3191 C   0  0  0  0  0  0  0  0  0  0  0  0
  -19.1380   45.8243  -26.2545 C   0  0  0  0  0  0  0  0  0  0  0  0
  -18.7207   45.4861  -27.5360 C   0  0  0  0  0  0  0  0  0  0  0  0
  -18.2967   43.7262  -27.3500 S   0  0  0  0  0  0  0  0  0  0  0  0
  1  2  2  0
  2  3  1  0
  3  4  1  0
  4  5  2  0
  5  6  1  0
  6  7  1  0
  6  8  2  0
  8  9  1  0
  9 10  2  0
 10 11  1  0
 11 12  2  0
 12 13  1  0
 13 14  2  0
 14 15  1  0
 15 16  2  0
 16 17  1  0
 17 18  2  0
 18 19  1  0
 19 20  2  0
 20 21  1  0
  2 22  1  0
 22 23  2  0
 23 24  1  0
 24 25  2  0
 25 26  1  0
 10  4  1  0
 20 11  1  0
 26 22  1  0
 18 13  1  0
M  END
$$$$
