
     RDKit          3D

 23 24  0  0  0  0  0  0  0  0999 V2000
  -12.6621   12.6661  -30.7403 C   0  0  0  0  0  0  0  0  0  0  0  0
  -13.4499   12.8948  -29.4805 C   0  0  0  0  0  0  0  0  0  0  0  0
  -12.8397   12.7607  -28.2372 C   0  0  0  0  0  0  0  0  0  0  0  0
  -13.5636   12.9708  -27.0976 C   0  0  0  0  0  0  0  0  0  0  0  0
  -12.9125   12.8294  -25.7657 C   0  0  0  0  0  0  0  0  0  0  0  0
  -14.8905   13.3128  -27.1993 C   0  0  0  0  0  0  0  0  0  0  0  0
  -15.5092   13.4498  -28.4066 C   0  0  0  0  0  0  0  0  0  0  0  0
  -16.8456   13.7936  -28.5304 O   0  0  0  0  0  0  0  0  0  0  0  0
  -17.3669   14.4988  -29.5830 C   0  0  0  0  0  0  0  0  0  0  0  0
  -17.0651   15.8361  -29.6975 C   0  0  0  0  0  0  0  0  0  0  0  0
  -17.6067   16.5267  -30.7745 C   0  0  0  0  0  0  0  0  0  0  0  0
  -18.4066   15.9092  -31.6868 C   0  0  0  0  0  0  0  0  0  0  0  0
  -18.9609   16.6560  -32.8187 C   0  0  0  0  0  0  0  0  0  0  0  0
  -20.3618   16.9454  -32.6455 N   0  0  0  0  0  0  0  0  0  0  0  0
  -20.9744   17.4433  -31.4742 C   0  0  0  0  0  0  0  0  0  0  0  0
  -20.9097   16.7653  -30.4320 O   0  0  0  0  0  0  0  0  0  0  0  0
  -21.6929   18.7469  -31.4439 C   0  0  2  0  0  0  0  0  0  0  0  0
  -21.5210   19.4149  -30.0923 C   0  0  0  0  0  0  0  0  0  0  0  0
  -23.1001   18.4820  -31.6567 N   0  0  0  0  0  0  0  0  0  0  0  0
  -18.7043   14.5514  -31.5588 C   0  0  0  0  0  0  0  0  0  0  0  0
  -18.1762   13.8547  -30.4987 C   0  0  0  0  0  0  0  0  0  0  0  0
  -18.4791   12.4016  -30.3647 C   0  0  0  0  0  0  0  0  0  0  0  0
  -14.7763   13.2372  -29.5644 C   0  0  0  0  0  0  0  0  0  0  0  0
  1  2  1  0
  2  3  2  0
  3  4  1  0
  4  5  1  0
  4  6  2  0
  6  7  1  0
  7  8  1  0
  8  9  1  0
  9 10  2  0
 10 11  1  0
 11 12  2  0
 12 13  1  0
 13 14  1  0
 14 15  1  0
 15 16  2  0
 15 17  1  0
 17 18  1  1
 17 19  1  0
 12 20  1  0
 20 21  2  0
 21 22  1  0
  7 23  2  0
 23  2  1  0
 21  9  1  0
M  END
$$$$
