
     RDKit          3D

 34 36  0  0  0  0  0  0  0  0999 V2000
  -20.4103   39.5162  -19.8937 O   0  0  0  0  0  0  0  0  0  0  0  0
  -19.3147   39.7822  -20.4571 C   0  0  0  0  0  0  0  0  0  0  0  0
  -18.3767   38.7911  -20.6555 O   0  0  0  0  0  0  0  0  0  0  0  0
  -18.6636   37.6793  -21.4380 C   0  0  0  0  0  0  0  0  0  0  0  0
  -18.2856   36.3756  -20.8071 C   0  0  0  0  0  0  0  0  0  0  0  0
  -18.7716   35.3317  -21.5810 F   0  0  0  0  0  0  0  0  0  0  0  0
  -16.9341   36.2507  -20.6445 F   0  0  0  0  0  0  0  0  0  0  0  0
  -18.9642   36.3028  -19.5822 F   0  0  0  0  0  0  0  0  0  0  0  0
  -18.0422   37.8603  -22.7988 C   0  0  0  0  0  0  0  0  0  0  0  0
  -16.6515   37.7991  -22.7381 F   0  0  0  0  0  0  0  0  0  0  0  0
  -18.4351   36.8545  -23.6751 F   0  0  0  0  0  0  0  0  0  0  0  0
  -18.3811   39.0551  -23.3968 F   0  0  0  0  0  0  0  0  0  0  0  0
  -19.0875   41.1281  -20.8754 N   0  0  0  0  0  0  0  0  0  0  0  0
  -17.8578   41.5344  -21.5408 C   0  0  0  0  0  0  0  0  0  0  0  0
  -18.2982   42.3963  -22.7012 C   0  0  0  0  0  0  0  0  0  0  0  0
  -18.8455   43.6363  -22.1971 N   0  0  0  0  0  0  0  0  0  0  0  0
  -17.7319   44.6007  -22.1292 C   0  0  0  0  0  0  0  0  0  0  0  0
  -18.1196   45.7503  -21.2630 C   0  0  0  0  0  0  0  0  0  0  0  0
  -19.3306   46.4001  -21.4367 C   0  0  0  0  0  0  0  0  0  0  0  0
  -19.7053   47.4911  -20.6572 C   0  0  0  0  0  0  0  0  0  0  0  0
  -18.8570   47.9520  -19.6784 C   0  0  0  0  0  0  0  0  0  0  0  0
  -19.2426   49.1222  -18.8524 C   0  0  0  0  0  0  0  0  0  0  0  0
  -20.6173   49.2913  -18.8267 F   0  0  0  0  0  0  0  0  0  0  0  0
  -18.7971   49.0035  -17.5434 F   0  0  0  0  0  0  0  0  0  0  0  0
  -18.7117   50.2982  -19.3409 F   0  0  0  0  0  0  0  0  0  0  0  0
  -17.6552   47.3115  -19.5012 C   0  0  0  0  0  0  0  0  0  0  0  0
  -17.2767   46.2198  -20.2785 C   0  0  0  0  0  0  0  0  0  0  0  0
  -16.0340   45.5877  -20.0895 N   0  0  0  0  0  0  0  0  0  0  0  0
  -15.4196   44.6124  -20.9690 C   0  0  0  0  0  0  0  0  0  0  0  0
  -13.9706   45.1045  -21.0472 C   0  0  0  0  0  0  0  0  0  0  0  0
  -13.7297   45.5125  -19.5939 C   0  0  0  0  0  0  0  0  0  0  0  0
  -15.1013   45.7524  -18.9956 C   0  0  0  0  0  0  0  0  0  0  0  0
  -19.3641   43.4942  -20.8494 C   0  0  0  0  0  0  0  0  0  0  0  0
  -20.0684   42.1672  -20.6724 C   0  0  0  0  0  0  0  0  0  0  0  0
  1  2  2  0
  2  3  1  0
  3  4  1  0
  4  5  1  0
  5  6  1  0
  5  7  1  0
  5  8  1  0
  4  9  1  0
  9 10  1  0
  9 11  1  0
  9 12  1  0
  2 13  1  0
 13 14  1  0
 14 15  1  0
 15 16  1  0
 16 17  1  0
 17 18  1  0
 18 19  2  0
 19 20  1  0
 20 21  2  0
 21 22  1  0
 22 23  1  0
 22 24  1  0
 22 25  1  0
 21 26  1  0
 26 27  2  0
 27 28  1  0
 28 29  1  0
 29 30  1  0
 30 31  1  0
 31 32  1  0
 16 33  1  0
 33 34  1  0
 34 13  1  0
 27 18  1  0
 32 28  1  0
M  END
$$$$
