
     RDKit          3D

 29 30  0  0  0  0  0  0  0  0999 V2000
  -15.5122   44.7230  -16.2612 O   0  0  0  0  0  0  0  0  0  0  0  0
  -16.1743   44.2311  -17.2226 C   0  0  0  0  0  0  0  0  0  0  0  0
  -16.1101   42.8862  -17.5403 C   0  0  0  0  0  0  0  0  0  0  0  0
  -16.8491   42.3921  -18.5973 C   0  0  0  0  0  0  0  0  0  0  0  0
  -17.6517   43.1920  -19.3508 N   0  0  0  0  0  0  0  0  0  0  0  0
  -18.3918   42.6365  -20.4272 C   0  0  2  0  0  0  0  0  0  0  0  0
  -18.7820   41.3112  -20.2264 O   0  0  0  0  0  0  0  0  0  0  0  0
  -19.3471   40.9555  -21.4334 C   0  0  2  0  0  0  0  0  0  0  0  0
  -19.3244   39.4906  -21.7087 C   0  0  0  0  0  0  0  0  0  0  0  0
  -18.0383   38.9953  -21.9166 O   0  0  0  0  0  0  0  0  0  0  0  0
  -17.9910   37.3285  -21.9877 P   0  0  0  0  0  5  0  0  0  0  0  0
  -17.5457   36.7137  -20.6667 O   0  0  0  0  0  0  0  0  0  0  0  0
  -16.8679   36.8982  -23.1941 O   0  0  0  0  0  0  0  0  0  0  0  0
  -19.4578   36.6327  -22.4019 O   0  0  0  0  0  0  0  0  0  0  0  0
  -19.7216   35.1488  -21.6637 P   0  0  0  0  0  5  0  0  0  0  0  0
  -18.9229   34.9437  -20.4214 O   0  0  0  0  0  0  0  0  0  0  0  0
  -21.3756   35.0235  -21.3344 O   0  0  0  0  0  0  0  0  0  0  0  0
  -19.3315   33.9165  -22.7504 O   0  0  0  0  0  0  0  0  0  0  0  0
  -19.6349   32.4267  -22.0020 P   0  0  0  0  0  5  0  0  0  0  0  0
  -19.3159   31.3327  -22.9922 O   0  0  0  0  0  0  0  0  0  0  0  0
  -21.2291   32.2943  -21.4943 O   0  0  0  0  0  0  0  0  0  0  0  0
  -18.5657   32.2761  -20.6762 O   0  0  0  0  0  0  0  0  0  0  0  0
  -18.5674   41.6581  -22.5186 C   0  0  1  0  0  0  0  0  0  0  0  0
  -19.4219   42.5548  -23.1728 O   0  0  0  0  0  0  0  0  0  0  0  0
  -17.5952   42.4982  -21.7105 C   0  0  1  0  0  0  0  0  0  0  0  0
  -17.3486   43.7285  -22.3085 O   0  0  0  0  0  0  0  0  0  0  0  0
  -17.6936   44.4781  -19.0229 C   0  0  0  0  0  0  0  0  0  0  0  0
  -18.4210   45.2543  -19.6906 O   0  0  0  0  0  0  0  0  0  0  0  0
  -16.9765   44.9983  -17.9853 N   0  0  0  0  0  0  0  0  0  0  0  0
  1  2  2  0
  2  3  1  0
  3  4  2  0
  4  5  1  0
  6  5  1  1
  6  7  1  0
  7  8  1  0
  8  9  1  6
  9 10  1  0
 10 11  1  0
 11 12  2  0
 11 13  1  0
 11 14  1  0
 14 15  1  0
 15 16  2  0
 15 17  1  0
 15 18  1  0
 18 19  1  0
 19 20  2  0
 19 21  1  0
 19 22  1  0
  8 23  1  0
 23 24  1  1
 23 25  1  0
 25 26  1  6
  5 27  1  0
 27 28  2  0
 27 29  1  0
 29  2  1  0
 25  6  1  0
M  END
$$$$
