
     RDKit          3D

 30 32  0  0  0  0  0  0  0  0999 V2000
  -18.1440   42.6165  -21.8928 Cl  0  0  0  0  0  0  0  0  0  0  0  0
  -19.8152   39.8928  -18.9240 N   0  0  0  0  0  0  0  0  0  0  0  0
  -19.3185   40.3137  -20.1694 C   0  0  0  0  0  0  0  0  0  0  0  0
  -19.7229   39.7429  -21.2094 O   0  0  0  0  0  0  0  0  0  0  0  0
  -18.3477   41.3980  -20.2473 C   0  0  0  0  0  0  0  0  0  0  0  0
  -17.8877   42.0389  -19.1387 C   0  0  0  0  0  0  0  0  0  0  0  0
  -17.0045   43.0179  -19.2760 N   0  0  0  0  0  0  0  0  0  0  0  0
  -16.5041   43.4517  -20.4447 C   0  0  0  0  0  0  0  0  0  0  0  0
  -15.5544   44.5110  -20.5363 N   0  0  0  0  0  0  0  0  0  0  0  0
  -15.0467   45.2058  -19.3710 C   0  0  2  0  0  0  0  0  0  0  0  0
  -14.0844   46.2969  -19.8087 C   0  0  0  0  0  0  0  0  0  0  0  0
  -12.6649   45.7989  -19.8869 C   0  0  0  0  0  0  0  0  0  0  0  0
  -12.5696   44.3470  -20.2853 C   0  0  0  0  0  0  0  0  0  0  0  0
  -13.3929   43.4256  -19.4413 C   0  0  0  0  0  0  0  0  0  0  0  0
  -14.2027   44.2783  -18.4879 C   0  0  2  0  0  0  0  0  0  0  0  0
  -14.9792   43.5227  -17.5590 N   0  0  0  0  0  0  0  0  0  0  0  0
  -16.9598   42.8164  -21.5466 N   0  0  0  0  0  0  0  0  0  0  0  0
  -17.8609   41.8086  -21.4874 C   0  0  0  0  0  0  0  0  0  0  0  0
  -18.3272   41.1537  -22.6609 N   0  0  0  0  0  0  0  0  0  0  0  0
  -19.4860   41.6916  -23.2938 C   0  0  0  0  0  0  0  0  0  0  0  0
  -20.1441   42.8002  -22.8011 C   0  0  0  0  0  0  0  0  0  0  0  0
  -21.2648   43.3284  -23.4050 C   0  0  0  0  0  0  0  0  0  0  0  0
  -21.7219   42.7095  -24.5369 C   0  0  0  0  0  0  0  0  0  0  0  0
  -21.0987   41.6059  -25.0606 C   0  0  0  0  0  0  0  0  0  0  0  0
  -21.5913   40.9733  -26.2440 N   0  0  0  0  0  0  0  0  0  0  0  0
  -21.0195   40.9342  -27.4291 N   0  0  0  0  0  0  0  0  0  0  0  0
  -21.7824   40.2472  -28.2934 C   0  0  0  0  0  0  0  0  0  0  0  0
  -22.9028   39.8372  -27.5811 C   0  0  0  0  0  0  0  0  0  0  0  0
  -22.7323   40.3111  -26.3281 N   0  0  0  0  0  0  0  0  0  0  0  0
  -19.9789   41.0834  -24.4516 C   0  0  0  0  0  0  0  0  0  0  0  0
  2  3  1  0
  3  4  2  0
  3  5  1  0
  5  6  2  0
  6  7  1  0
  7  8  2  0
  8  9  1  0
 10  9  1  6
 10 11  1  0
 11 12  1  0
 12 13  1  0
 13 14  1  0
 14 15  1  0
 15 16  1  6
  8 17  1  0
 17 18  2  0
 18 19  1  0
 19 20  1  0
 20 21  2  0
 21 22  1  0
 22 23  2  0
 23 24  1  0
 24 25  1  0
 25 26  1  0
 26 27  2  0
 27 28  1  0
 28 29  2  0
 24 30  2  0
 18  5  1  0
 30 20  1  0
 15 10  1  0
 29 25  1  0
M  END
$$$$
