
     RDKit          3D

 22 24  0  0  0  0  0  0  0  0999 V2000
  -22.5240   11.4863  -22.8217 C   0  0  0  0  0  0  0  0  0  0  0  0
  -23.7237   12.3461  -22.5981 C   0  0  0  0  0  0  0  0  0  0  0  0
  -24.1324   13.0006  -23.8902 C   0  0  0  0  0  0  0  0  0  0  0  0
  -23.5183   12.8878  -25.0167 O   0  0  0  0  0  0  0  0  0  0  0  0
  -24.1114   13.5665  -25.9416 C   0  0  0  0  0  0  0  0  0  0  0  0
  -23.7863   13.7125  -27.2764 C   0  0  0  0  0  0  0  0  0  0  0  0
  -24.5767   14.4926  -28.0933 C   0  0  0  0  0  0  0  0  0  0  0  0
  -25.6798   15.1085  -27.5431 C   0  0  0  0  0  0  0  0  0  0  0  0
  -25.9880   14.9505  -26.2037 C   0  0  0  0  0  0  0  0  0  0  0  0
  -25.2196   14.1849  -25.3732 C   0  0  0  0  0  0  0  0  0  0  0  0
  -25.2423   13.8278  -24.0503 C   0  0  0  0  0  0  0  0  0  0  0  0
  -26.1808   14.1493  -23.0079 C   0  0  0  0  0  0  0  0  0  0  0  0
  -26.8915   15.2300  -23.1328 O   0  0  0  0  0  0  0  0  0  0  0  0
  -26.4697   13.4222  -21.7941 C   0  0  0  0  0  0  0  0  0  0  0  0
  -27.7941   13.0794  -21.4800 C   0  0  0  0  0  0  0  0  0  0  0  0
  -28.1183   12.3461  -20.3606 C   0  0  0  0  0  0  0  0  0  0  0  0
  -29.9283   11.9019  -19.9703 Br  0  0  0  0  0  0  0  0  0  0  0  0
  -27.1388   11.9161  -19.4955 C   0  0  0  0  0  0  0  0  0  0  0  0
  -27.4934   11.1818  -18.3799 O   0  0  0  0  0  0  0  0  0  0  0  0
  -25.8219   12.2333  -19.7699 C   0  0  0  0  0  0  0  0  0  0  0  0
  -24.4862   11.6249  -18.5550 Br  0  0  0  0  0  0  0  0  0  0  0  0
  -25.5347   12.9658  -20.8946 C   0  0  0  0  0  0  0  0  0  0  0  0
  1  2  1  0
  2  3  1  0
  3  4  1  0
  4  5  1  0
  5  6  2  0
  6  7  1  0
  7  8  2  0
  8  9  1  0
  9 10  2  0
 10 11  1  0
 11 12  1  0
 12 13  2  0
 12 14  1  0
 14 15  2  0
 15 16  1  0
 16 17  1  0
 16 18  2  0
 18 19  1  0
 18 20  1  0
 20 21  1  0
 20 22  2  0
 11  3  2  0
 22 14  1  0
 10  5  1  0
M  END
$$$$
