
     RDKit          3D

 36 40  0  0  0  0  0  0  0  0999 V2000
  -20.7865   45.5013  -28.0384 C   0  0  0  0  0  0  0  0  0  0  0  0
  -20.2443   44.5193  -27.1099 N   0  0  0  0  0  0  0  0  0  0  0  0
  -18.8368   44.3606  -27.5143 C   0  0  0  0  0  0  0  0  0  0  0  0
  -20.3010   45.0268  -25.7399 C   0  0  0  0  0  0  0  0  0  0  0  0
  -19.7483   43.9702  -24.7997 C   0  0  2  0  0  0  0  0  0  0  0  0
  -20.6178   42.7365  -24.8011 C   0  0  0  0  0  0  0  0  0  0  0  0
  -19.7892   41.4544  -24.6439 C   0  0  0  0  0  0  0  0  0  0  0  0
  -19.6465   41.0983  -23.2415 N   0  0  0  0  0  0  0  0  0  0  0  0
  -18.6904   41.4463  -22.3573 C   0  0  0  0  0  0  0  0  0  0  0  0
  -19.0225   40.9052  -21.1577 C   0  0  0  0  0  0  0  0  0  0  0  0
  -20.2440   40.1899  -21.3210 C   0  0  0  0  0  0  0  0  0  0  0  0
  -21.0384   39.4556  -20.4316 C   0  0  0  0  0  0  0  0  0  0  0  0
  -22.1907   38.8677  -20.8750 C   0  0  0  0  0  0  0  0  0  0  0  0
  -22.5562   39.0061  -22.1927 C   0  0  0  0  0  0  0  0  0  0  0  0
  -21.7960   39.7220  -23.0874 C   0  0  0  0  0  0  0  0  0  0  0  0
  -20.6133   40.3259  -22.6342 C   0  0  0  0  0  0  0  0  0  0  0  0
  -18.3387   40.9930  -19.8181 C   0  0  0  0  0  0  0  0  0  0  0  0
  -17.9241   42.1346  -19.2718 C   0  0  0  0  0  0  0  0  0  0  0  0
  -17.3129   41.8743  -17.9764 C   0  0  0  0  0  0  0  0  0  0  0  0
  -16.7999   42.7223  -17.1503 O   0  0  0  0  0  0  0  0  0  0  0  0
  -17.3675   40.4751  -17.7374 N   0  0  0  0  0  0  0  0  0  0  0  0
  -18.0040   39.9339  -18.8822 C   0  0  0  0  0  0  0  0  0  0  0  0
  -18.2126   38.6641  -18.9906 O   0  0  0  0  0  0  0  0  0  0  0  0
  -18.0503   43.4673  -19.9848 C   0  0  0  0  0  0  0  0  0  0  0  0
  -19.1234   44.0207  -20.6088 C   0  0  0  0  0  0  0  0  0  0  0  0
  -18.7365   45.2026  -21.1310 N   0  0  0  0  0  0  0  0  0  0  0  0
  -17.4008   45.4184  -20.8408 C   0  0  0  0  0  0  0  0  0  0  0  0
  -16.5350   46.4793  -21.1553 C   0  0  0  0  0  0  0  0  0  0  0  0
  -15.2398   46.4161  -20.7326 C   0  0  0  0  0  0  0  0  0  0  0  0
  -14.7937   45.3324  -20.0125 C   0  0  0  0  0  0  0  0  0  0  0  0
  -15.6240   44.2874  -19.6962 C   0  0  0  0  0  0  0  0  0  0  0  0
  -16.9434   44.3494  -20.1244 C   0  0  0  0  0  0  0  0  0  0  0  0
  -19.5045   46.1519  -21.9216 C   0  0  0  0  0  0  0  0  0  0  0  0
  -19.6135   45.8186  -23.3849 C   0  0  0  0  0  0  0  0  0  0  0  0
  -19.8095   44.4629  -23.4817 O   0  0  0  0  0  0  0  0  0  0  0  0
  -19.3425   43.3863  -23.2595 Cl  0  0  0  0  0  0  0  0  0  0  0  0
  1  2  1  0
  2  3  1  0
  2  4  1  0
  5  4  1  6
  5  6  1  0
  6  7  1  0
  7  8  1  0
  8  9  1  0
  9 10  2  0
 10 11  1  0
 11 12  2  0
 12 13  1  0
 13 14  2  0
 14 15  1  0
 15 16  2  0
 10 17  1  0
 17 18  2  0
 18 19  1  0
 19 20  2  0
 19 21  1  0
 21 22  1  0
 22 23  2  0
 18 24  1  0
 24 25  2  0
 25 26  1  0
 26 27  1  0
 27 28  2  0
 28 29  1  0
 29 30  2  0
 30 31  1  0
 31 32  2  0
 26 33  1  0
 33 34  1  0
 34 35  1  0
 35  5  1  0
 16  8  1  0
 22 17  1  0
 32 24  1  0
 16 11  1  0
 32 27  1  0
M  END
$$$$
