
     RDKit          3D

 18 18  0  0  0  0  0  0  0  0999 V2000
  -35.8005    8.7540  -20.2077 C   0  0  0  0  0  0  0  0  0  0  0  0
  -34.6499    9.1927  -19.3114 C   0  0  0  0  0  0  0  0  0  0  0  0
  -34.0693   10.4349  -19.9683 C   0  0  0  0  0  0  0  0  0  0  0  0
  -32.9229   10.9106  -19.1430 C   0  0  0  0  0  0  0  0  0  0  0  0
  -32.0397   11.9542  -19.7079 C   0  0  0  0  0  0  0  0  0  0  0  0
  -30.6316   11.6516  -19.9960 C   0  0  0  0  0  0  0  0  0  0  0  0
  -29.6720   12.7069  -19.9684 N   0  0  0  0  0  0  0  0  0  0  0  0
  -29.2414   13.3748  -21.1473 C   0  0  0  0  0  0  0  0  0  0  0  0
  -29.8582   13.0039  -22.2035 O   0  0  0  0  0  0  0  0  0  0  0  0
  -28.2524   14.3557  -21.2649 N   0  0  0  0  0  0  0  0  0  0  0  0
  -27.1174   14.0195  -21.9395 C   0  0  0  0  0  0  0  0  0  0  0  0
  -26.0611   14.8560  -22.1423 C   0  0  0  0  0  0  0  0  0  0  0  0
  -24.9545   14.4685  -22.8220 F   0  0  0  0  0  0  0  0  0  0  0  0
  -26.1441   16.1391  -21.6276 C   0  0  0  0  0  0  0  0  0  0  0  0
  -25.1690   16.9176  -21.8126 O   0  0  0  0  0  0  0  0  0  0  0  0
  -27.2523   16.4849  -20.9625 N   0  0  0  0  0  0  0  0  0  0  0  0
  -28.2864   15.6040  -20.7868 C   0  0  0  0  0  0  0  0  0  0  0  0
  -29.2846   15.9893  -20.1603 O   0  0  0  0  0  0  0  0  0  0  0  0
  1  2  1  0
  2  3  1  0
  3  4  1  0
  4  5  1  0
  5  6  1  0
  6  7  1  0
  7  8  1  0
  8  9  2  0
  8 10  1  0
 10 11  1  0
 11 12  2  0
 12 13  1  0
 12 14  1  0
 14 15  2  0
 14 16  1  0
 16 17  1  0
 17 18  2  0
 17 10  1  0
M  END
$$$$
