
     RDKit          3D

 34 39  0  0  0  0  0  0  0  0999 V2000
  -18.7157   40.8735  -23.7599 C   0  0  0  0  0  0  0  0  0  0  0  0
  -18.5672   40.0396  -22.4880 C   0  0  1  0  0  0  0  0  0  0  0  0
  -19.8914   39.5328  -22.0578 C   0  0  0  0  0  0  0  0  0  0  0  0
  -20.4847   40.0375  -21.0550 O   0  0  0  0  0  0  0  0  0  0  0  0
  -20.5692   38.4780  -22.7170 N   0  0  0  0  0  0  0  0  0  0  0  0
  -21.9775   38.4141  -22.8691 C   0  0  0  0  0  0  0  0  0  0  0  0
  -22.7819   37.7055  -22.0055 C   0  0  0  0  0  0  0  0  0  0  0  0
  -24.1412   37.7028  -22.2326 C   0  0  0  0  0  0  0  0  0  0  0  0
  -24.6842   38.3908  -23.2957 C   0  0  0  0  0  0  0  0  0  0  0  0
  -26.0300   38.3931  -23.5241 F   0  0  0  0  0  0  0  0  0  0  0  0
  -23.8925   39.0713  -24.1226 N   0  0  0  0  0  0  0  0  0  0  0  0
  -22.5511   39.0907  -23.9221 C   0  0  0  0  0  0  0  0  0  0  0  0
  -17.5918   38.9452  -22.7736 C   0  0  0  0  0  0  0  0  0  0  0  0
  -16.4085   39.2534  -21.8871 C   0  0  0  0  0  0  0  0  0  0  0  0
  -17.1021   39.9690  -20.7188 C   0  0  0  0  0  0  0  0  0  0  0  0
  -18.0065   40.8321  -21.4161 N   0  0  0  0  0  0  0  0  0  0  0  0
  -18.2899   42.1778  -21.1139 C   0  0  0  0  0  0  0  0  0  0  0  0
  -17.5302   42.9154  -20.2713 N   0  0  0  0  0  0  0  0  0  0  0  0
  -17.8112   44.1939  -19.9863 C   0  0  0  0  0  0  0  0  0  0  0  0
  -17.0194   44.9694  -19.1047 N   0  0  0  0  0  0  0  0  0  0  0  0
  -15.6885   44.6387  -18.8119 C   0  0  0  0  0  0  0  0  0  0  0  0
  -14.8857   43.6485  -19.3407 C   0  0  0  0  0  0  0  0  0  0  0  0
  -13.6488   43.7146  -18.7404 C   0  0  0  0  0  0  0  0  0  0  0  0
  -12.4349   42.8638  -18.9642 C   0  0  0  0  0  0  0  0  0  0  0  0
  -11.1590   43.5575  -18.6135 C   0  0  0  0  0  0  0  0  0  0  0  0
  -11.6892   42.5014  -17.6906 C   0  0  0  0  0  0  0  0  0  0  0  0
  -13.7161   44.7397  -17.8577 N   0  0  0  0  0  0  0  0  0  0  0  0
  -14.9138   45.2798  -17.9022 N   0  0  0  0  0  0  0  0  0  0  0  0
  -18.9181   44.8273  -20.5588 C   0  0  0  0  0  0  0  0  0  0  0  0
  -19.4227   46.1058  -20.4470 C   0  0  0  0  0  0  0  0  0  0  0  0
  -20.5413   46.1491  -21.2602 C   0  0  0  0  0  0  0  0  0  0  0  0
  -20.6551   44.9030  -21.8180 C   0  0  0  0  0  0  0  0  0  0  0  0
  -19.6583   44.0793  -21.3924 N   0  0  0  0  0  0  0  0  0  0  0  0
  -19.3513   42.8178  -21.6504 N   0  0  0  0  0  0  0  0  0  0  0  0
  2  1  1  6
  2  3  1  0
  3  4  2  0
  3  5  1  0
  5  6  1  0
  6  7  2  0
  7  8  1  0
  8  9  2  0
  9 10  1  0
  9 11  1  0
 11 12  2  0
  2 13  1  0
 13 14  1  0
 14 15  1  0
 15 16  1  0
 16 17  1  0
 17 18  1  0
 18 19  2  0
 19 20  1  0
 20 21  1  0
 21 22  1  0
 22 23  2  0
 23 24  1  0
 24 25  1  0
 25 26  1  0
 23 27  1  0
 27 28  1  0
 19 29  1  0
 29 30  2  0
 30 31  1  0
 31 32  2  0
 32 33  1  0
 33 34  1  0
 16  2  1  0
 34 17  2  0
 12  6  1  0
 28 21  2  0
 33 29  1  0
 26 24  1  0
M  END
$$$$
