
     RDKit          3D

 22 24  0  0  0  0  0  0  0  0999 V2000
   -0.0220   17.6047  -21.8606 O   0  0  0  0  0  0  0  0  0  0  0  0
    0.6631   17.9943  -20.9042 C   0  0  0  0  0  0  0  0  0  0  0  0
    1.8362   18.8225  -21.1208 C   0  0  0  0  0  0  0  0  0  0  0  0
    2.2754   19.2671  -22.7502 Cl  0  0  0  0  0  0  0  0  0  0  0  0
    2.5670   19.2380  -20.0993 C   0  0  0  0  0  0  0  0  0  0  0  0
    3.6966   20.0426  -20.3889 N   0  0  0  0  0  0  0  0  0  0  0  0
    4.2792   20.8890  -19.3729 C   0  0  0  0  0  0  0  0  0  0  0  0
    4.9642   20.0816  -18.2949 C   0  0  0  0  0  0  0  0  0  0  0  0
    5.7897   20.9051  -17.4463 N   0  0  0  0  0  0  0  0  0  0  0  0
    6.0225   20.3264  -16.1606 C   0  0  0  0  0  0  0  0  0  0  0  0
    7.1937   19.3766  -16.2311 C   0  0  0  0  0  0  0  0  0  0  0  0
    8.3663   20.0275  -16.5239 O   0  0  0  0  0  0  0  0  0  0  0  0
    8.1952   21.2687  -17.1165 C   0  0  0  0  0  0  0  0  0  0  0  0
    7.0220   21.2969  -18.0667 C   0  0  0  0  0  0  0  0  0  0  0  0
    2.1949   18.8618  -18.7223 C   0  0  0  0  0  0  0  0  0  0  0  0
    2.8965   19.2632  -17.7701 O   0  0  0  0  0  0  0  0  0  0  0  0
    1.0245   18.0303  -18.4457 C   0  0  0  0  0  0  0  0  0  0  0  0
    0.6749   17.6798  -17.1878 N   0  0  0  0  0  0  0  0  0  0  0  0
   -0.4032   16.9140  -16.9342 C   0  0  0  0  0  0  0  0  0  0  0  0
   -1.1839   16.4662  -17.9803 C   0  0  0  0  0  0  0  0  0  0  0  0
   -0.8264   16.8253  -19.2758 C   0  0  0  0  0  0  0  0  0  0  0  0
    0.2797   17.6103  -19.5282 C   0  0  0  0  0  0  0  0  0  0  0  0
  1  2  2  0
  2  3  1  0
  3  4  1  0
  3  5  2  0
  5  6  1  0
  6  7  1  0
  7  8  1  0
  8  9  1  0
  9 10  1  0
 10 11  1  0
 11 12  1  0
 12 13  1  0
 13 14  1  0
  5 15  1  0
 15 16  2  0
 15 17  1  0
 17 18  2  0
 18 19  1  0
 19 20  2  0
 20 21  1  0
 21 22  2  0
 22  2  1  0
 14  9  1  0
 22 17  1  0
M  END
$$$$
