
     RDKit          3D

 14 17  0  0  0  0  0  0  0  0999 V2000
  -20.6853   37.2409  -23.2957 C   0  0  0  0  0  0  0  0  0  0  0  0
  -19.7693   37.4723  -22.1636 C   0  0  0  0  0  0  0  0  0  0  0  0
  -18.9643   38.4390  -21.6083 C   0  0  0  0  0  0  0  0  0  0  0  0
  -18.7394   39.8057  -22.0846 C   0  0  0  0  0  0  0  0  0  0  0  0
  -17.5566   40.4411  -22.1946 N   0  0  0  0  0  0  0  0  0  0  0  0
  -17.7511   41.6741  -22.6654 N   0  0  0  0  0  0  0  0  0  0  0  0
  -19.0596   41.7929  -22.8441 N   0  0  0  0  0  0  0  0  0  0  0  0
  -19.6616   40.6906  -22.5034 N   0  0  0  0  0  0  0  0  0  0  0  0
  -18.4151   37.8859  -20.5312 N   0  0  0  0  0  0  0  0  0  0  0  0
  -18.8163   36.6432  -20.3699 N   0  0  0  0  0  0  0  0  0  0  0  0
  -19.6677   36.3397  -21.3711 C   0  0  0  0  0  0  0  0  0  0  0  0
  -20.5044   35.2611  -21.9059 C   0  0  2  0  0  0  0  0  0  0  0  0
  -20.3369   34.7447  -23.2751 C   0  0  0  0  0  0  0  0  0  0  0  0
  -21.2559   35.8932  -23.0181 C   0  0  2  0  0  0  0  0  0  0  0  0
  1  2  1  0
  2  3  1  0
  3  4  1  0
  4  5  2  0
  5  6  1  0
  6  7  2  0
  7  8  1  0
  3  9  2  0
  9 10  1  0
 10 11  1  0
 11 12  1  0
 12 13  1  6
 14 13  1  6
 14  1  1  0
 11  2  2  0
 14 12  1  0
  8  4  1  0
M  END
$$$$
