
     RDKit          3D

 40 41  0  0  0  0  0  0  0  0999 V2000
  -16.8355   17.0653  -44.0822 C   0  0  0  0  0  0  0  0  0  0  0  0
  -16.7601   18.8240  -44.5898 S   0  0  0  0  0  0  0  0  0  0  0  0
  -16.4066   19.8322  -43.1824 C   0  0  0  0  0  0  0  0  0  0  0  0
  -17.0966   21.1012  -43.0118 C   0  0  0  0  0  0  0  0  0  0  0  0
  -17.0530   21.8975  -41.7502 C   0  0  2  0  0  0  0  0  0  0  0  0
  -18.0037   21.1650  -40.8428 N   0  0  0  0  0  0  0  0  0  0  0  0
  -17.6356   20.8711  -39.5169 C   0  0  0  0  0  0  0  0  0  0  0  0
  -17.6855   21.9208  -38.7372 O   0  0  0  0  0  0  0  0  0  0  0  0
  -17.2172   19.5936  -38.9486 C   0  0  2  0  0  0  0  0  0  0  0  0
  -16.0493   19.5232  -38.0474 C   0  0  0  0  0  0  0  0  0  0  0  0
  -16.0280   20.4223  -36.8872 C   0  0  0  0  0  0  0  0  0  0  0  0
  -15.7501   19.8168  -35.6553 C   0  0  0  0  0  0  0  0  0  0  0  0
  -15.6593   20.5682  -34.5124 C   0  0  0  0  0  0  0  0  0  0  0  0
  -15.8376   21.9410  -34.5339 C   0  0  0  0  0  0  0  0  0  0  0  0
  -16.1087   22.4992  -35.7627 C   0  0  0  0  0  0  0  0  0  0  0  0
  -16.2073   21.7774  -36.9319 C   0  0  0  0  0  0  0  0  0  0  0  0
  -17.0783   18.5898  -40.0332 N   0  0  0  0  0  0  0  0  0  0  0  0
  -16.7695   17.2450  -39.7495 C   0  0  0  0  0  0  0  0  0  0  0  0
  -15.6815   16.7978  -40.2643 O   0  0  0  0  0  0  0  0  0  0  0  0
  -17.6140   16.3781  -38.9219 C   0  0  0  0  0  0  0  0  0  0  0  0
  -18.8453   16.9516  -38.4716 N   0  0  0  0  0  0  0  0  0  0  0  0
  -19.7304   16.1683  -37.6491 C   0  0  0  0  0  0  0  0  0  0  0  0
  -19.3415   15.0761  -37.1764 O   0  0  0  0  0  0  0  0  0  0  0  0
  -21.1038   16.6435  -37.3543 C   0  0  0  0  0  0  0  0  0  0  0  0
  -21.4641   16.3303  -35.9888 N   0  0  0  0  0  0  0  0  0  0  0  0
  -21.2574   17.2504  -34.9400 C   0  0  0  0  0  0  0  0  0  0  0  0
  -20.1591   17.8721  -34.8938 O   0  0  0  0  0  0  0  0  0  0  0  0
  -22.2756   17.5183  -33.8888 C   0  0  1  0  0  0  0  0  0  0  0  0
  -22.1091   16.6386  -32.7513 N   0  0  0  0  0  0  0  0  0  0  0  0
  -22.2124   18.9660  -33.4437 C   0  0  0  0  0  0  0  0  0  0  0  0
  -23.1557   19.1354  -32.3187 C   0  0  0  0  0  0  0  0  0  0  0  0
  -22.7406   19.7721  -31.1754 C   0  0  0  0  0  0  0  0  0  0  0  0
  -23.6400   19.9284  -30.1116 C   0  0  0  0  0  0  0  0  0  0  0  0
  -24.9265   19.4423  -30.2257 C   0  0  0  0  0  0  0  0  0  0  0  0
  -25.8022   19.6118  -29.1491 O   0  0  0  0  0  0  0  0  0  0  0  0
  -25.3423   18.8042  -31.3723 C   0  0  0  0  0  0  0  0  0  0  0  0
  -24.4285   18.6605  -32.4183 C   0  0  0  0  0  0  0  0  0  0  0  0
  -17.8100   23.1962  -41.9422 C   0  0  0  0  0  0  0  0  0  0  0  0
  -17.4055   24.0169  -42.8484 O   0  0  0  0  0  0  0  0  0  0  0  0
  -18.9013   23.5949  -41.2366 O   0  0  0  0  0  0  0  0  0  0  0  0
  1  2  1  0
  2  3  1  0
  3  4  1  0
  5  4  1  6
  5  6  1  0
  6  7  1  0
  7  8  2  0
  7  9  1  0
  9 10  1  6
 10 11  1  0
 11 12  2  0
 12 13  1  0
 13 14  2  0
 14 15  1  0
 15 16  2  0
  9 17  1  0
 17 18  1  0
 18 19  2  0
 18 20  1  0
 20 21  1  0
 21 22  1  0
 22 23  2  0
 22 24  1  0
 24 25  1  0
 25 26  1  0
 26 27  2  0
 26 28  1  0
 28 29  1  1
 28 30  1  0
 30 31  1  0
 31 32  2  0
 32 33  1  0
 33 34  2  0
 34 35  1  0
 34 36  1  0
 36 37  2  0
  5 38  1  0
 38 39  2  0
 38 40  1  0
 16 11  1  0
 37 31  1  0
M  END
$$$$
