
     RDKit          3D

 15 17  0  0  0  0  0  0  0  0999 V2000
  -27.4174   25.5867  -38.2670 O   0  0  0  0  0  0  0  0  0  0  0  0
  -27.5890   25.0065  -37.1449 C   0  0  0  0  0  0  0  0  0  0  0  0
  -26.5093   24.6894  -36.4227 N   0  0  0  0  0  0  0  0  0  0  0  0
  -26.6480   24.0812  -35.2427 C   0  0  0  0  0  0  0  0  0  0  0  0
  -25.5331   23.7527  -34.4948 C   0  0  0  0  0  0  0  0  0  0  0  0
  -25.6561   23.1277  -33.2804 C   0  0  0  0  0  0  0  0  0  0  0  0
  -26.9341   22.8312  -32.8174 C   0  0  0  0  0  0  0  0  0  0  0  0
  -28.0616   23.1477  -33.5430 C   0  0  0  0  0  0  0  0  0  0  0  0
  -27.9363   23.7693  -34.7505 C   0  0  0  0  0  0  0  0  0  0  0  0
  -29.0450   24.0956  -35.4935 C   0  0  0  0  0  0  0  0  0  0  0  0
  -30.2888   23.8025  -35.0342 C   0  0  0  0  0  0  0  0  0  0  0  0
  -31.3893   24.1451  -35.8084 C   0  0  0  0  0  0  0  0  0  0  0  0
  -31.2420   24.7782  -37.0364 C   0  0  0  0  0  0  0  0  0  0  0  0
  -29.9739   25.0693  -37.4897 C   0  0  0  0  0  0  0  0  0  0  0  0
  -28.8712   24.7381  -36.7377 C   0  0  0  0  0  0  0  0  0  0  0  0
  1  2  2  0
  2  3  1  0
  3  4  1  0
  4  5  2  0
  5  6  1  0
  6  7  2  0
  7  8  1  0
  8  9  2  0
  9 10  1  0
 10 11  2  0
 11 12  1  0
 12 13  2  0
 13 14  1  0
 14 15  2  0
 15  2  1  0
  9  4  1  0
 15 10  1  0
M  END
$$$$
