
     RDKit          3D

 11 11  0  0  0  0  0  0  0  0999 V2000
  -16.4526   18.3861  -37.0977 N   0  0  0  0  0  0  0  0  0  0  0  0
  -15.9283   17.7041  -35.9741 N   0  0  0  0  0  0  0  0  0  0  0  0
  -16.8212   17.0722  -35.0727 C   0  0  0  0  0  0  0  0  0  0  0  0
  -18.0533   17.1124  -35.3679 O   0  0  0  0  0  0  0  0  0  0  0  0
  -16.3689   16.3936  -33.8443 C   0  0  0  0  0  0  0  0  0  0  0  0
  -15.0200   16.4746  -33.5263 C   0  0  0  0  0  0  0  0  0  0  0  0
  -14.5337   15.8608  -32.3896 C   0  0  0  0  0  0  0  0  0  0  0  0
  -15.3625   15.1527  -31.5388 C   0  0  0  0  0  0  0  0  0  0  0  0
  -14.8663   14.5272  -30.3804 O   0  0  0  0  0  0  0  0  0  0  0  0
  -16.6906   15.0814  -31.8655 C   0  0  0  0  0  0  0  0  0  0  0  0
  -17.1896   15.7017  -33.0166 C   0  0  0  0  0  0  0  0  0  0  0  0
  1  2  1  0
  2  3  1  0
  3  4  2  0
  3  5  1  0
  5  6  2  0
  6  7  1  0
  7  8  2  0
  8  9  1  0
  8 10  1  0
 10 11  2  0
 11  5  1  0
M  END
$$$$
