
     RDKit          3D

 36 40  0  0  0  0  0  0  0  0999 V2000
  -21.2107   35.4266  -22.2516 C   0  0  0  0  0  0  0  0  0  0  0  0
  -20.0632   35.9906  -21.4438 C   0  0  0  0  0  0  0  0  0  0  0  0
  -18.7857   36.0146  -22.2566 C   0  0  0  0  0  0  0  0  0  0  0  0
  -17.5108   37.0335  -21.5185 S   0  0  0  0  0  0  0  0  0  0  0  0
  -17.9094   38.7723  -21.5568 C   0  0  0  0  0  0  0  0  0  0  0  0
  -16.9175   39.6619  -21.3452 N   0  0  0  0  0  0  0  0  0  0  0  0
  -17.1608   41.0035  -21.3621 C   0  0  0  0  0  0  0  0  0  0  0  0
  -16.0907   41.9013  -21.1331 N   0  0  0  0  0  0  0  0  0  0  0  0
  -16.1498   43.0229  -20.2500 C   0  0  2  0  0  0  0  0  0  0  0  0
  -16.0921   44.3694  -20.8573 C   0  0  0  0  0  0  0  0  0  0  0  0
  -14.9478   43.8701  -20.0270 C   0  0  1  0  0  0  0  0  0  0  0  0
  -14.8011   44.5776  -18.7287 C   0  0  0  0  0  0  0  0  0  0  0  0
  -15.0413   43.9022  -17.5625 C   0  0  0  0  0  0  0  0  0  0  0  0
  -14.9179   44.5196  -16.3475 C   0  0  0  0  0  0  0  0  0  0  0  0
  -14.5474   45.8397  -16.2798 C   0  0  0  0  0  0  0  0  0  0  0  0
  -14.4098   46.5026  -15.1078 F   0  0  0  0  0  0  0  0  0  0  0  0
  -14.3071   46.5148  -17.4465 C   0  0  0  0  0  0  0  0  0  0  0  0
  -13.9369   47.8293  -17.4113 F   0  0  0  0  0  0  0  0  0  0  0  0
  -14.4319   45.8911  -18.6716 C   0  0  0  0  0  0  0  0  0  0  0  0
  -18.4480   41.4019  -21.6018 C   0  0  0  0  0  0  0  0  0  0  0  0
  -18.9977   42.6133  -21.6799 N   0  0  0  0  0  0  0  0  0  0  0  0
  -20.2875   42.5153  -21.9307 N   0  0  0  0  0  0  0  0  0  0  0  0
  -20.5948   41.2330  -22.0193 N   0  0  0  0  0  0  0  0  0  0  0  0
  -21.8995   40.7196  -22.2810 C   0  0  2  0  0  0  0  0  0  0  0  0
  -21.9733   39.6597  -23.3265 C   0  0  0  0  0  0  0  0  0  0  0  0
  -23.2825   39.8380  -24.0637 C   0  0  2  0  0  0  0  0  0  0  0  0
  -23.0148   40.1555  -25.3660 O   0  0  0  0  0  0  0  0  0  0  0  0
  -23.6082   39.3520  -26.3024 C   0  0  0  0  0  0  0  0  0  0  0  0
  -22.6757   38.7109  -27.2842 C   0  0  0  0  0  0  0  0  0  0  0  0
  -23.3931   37.9271  -28.1572 O   0  0  0  0  0  0  0  0  0  0  0  0
  -23.9830   40.9406  -23.3058 C   0  0  1  0  0  0  0  0  0  0  0  0
  -24.5212   40.3794  -22.1489 O   0  0  0  0  0  0  0  0  0  0  0  0
  -22.8155   41.8005  -22.8731 C   0  0  1  0  0  0  0  0  0  0  0  0
  -23.1819   42.7134  -21.8897 O   0  0  0  0  0  0  0  0  0  0  0  0
  -19.4921   40.5136  -21.8233 C   0  0  0  0  0  0  0  0  0  0  0  0
  -19.1778   39.2022  -21.7921 N   0  0  0  0  0  0  0  0  0  0  0  0
  1  2  1  0
  2  3  1  0
  3  4  1  0
  4  5  1  0
  5  6  2  0
  6  7  1  0
  7  8  1  0
  9  8  1  6
  9 10  1  0
 10 11  1  0
 11 12  1  1
 12 13  2  0
 13 14  1  0
 14 15  2  0
 15 16  1  0
 15 17  1  0
 17 18  1  0
 17 19  2  0
  7 20  2  0
 20 21  1  0
 21 22  2  0
 22 23  1  0
 24 23  1  6
 24 25  1  0
 25 26  1  0
 26 27  1  6
 27 28  1  0
 28 29  1  0
 29 30  1  0
 26 31  1  0
 31 32  1  1
 31 33  1  0
 33 34  1  1
 23 35  1  0
 35 36  2  0
 36  5  1  0
 11  9  1  0
 19 12  1  0
 35 20  1  0
 33 24  1  0
M  END
$$$$
