
     RDKit          3D

 20 21  0  0  0  0  0  0  0  0999 V2000
  -15.9788   14.2798  -29.4973 Br  0  0  0  0  0  0  0  0  0  0  0  0
  -20.5654   19.7486  -31.0897 N   0  0  0  0  0  0  0  0  0  0  0  0
  -20.2591   18.3235  -31.0031 C   0  0  0  0  0  0  0  0  0  0  0  0
  -19.5181   17.5794  -30.4662 N   0  0  0  0  0  0  0  0  0  0  0  0
  -19.4435   16.2707  -30.5616 C   0  0  0  0  0  0  0  0  0  0  0  0
  -18.4450   15.4406  -29.8172 C   0  0  0  0  0  0  0  0  0  0  0  0
  -17.5262   16.0130  -28.9705 C   0  0  0  0  0  0  0  0  0  0  0  0
  -16.6124   15.2763  -28.2866 C   0  0  0  0  0  0  0  0  0  0  0  0
  -16.5783   13.9032  -28.4239 C   0  0  0  0  0  0  0  0  0  0  0  0
  -15.5750   13.1009  -27.6722 C   0  0  0  0  0  0  0  0  0  0  0  0
  -14.3192   12.9306  -28.4396 C   0  0  0  0  0  0  0  0  0  0  0  0
  -14.1810   11.8496  -29.2796 C   0  0  0  0  0  0  0  0  0  0  0  0
  -13.0323   11.6669  -30.0007 C   0  0  0  0  0  0  0  0  0  0  0  0
  -12.0134   12.6026  -29.8594 C   0  0  0  0  0  0  0  0  0  0  0  0
  -12.1630   13.6989  -29.0025 C   0  0  0  0  0  0  0  0  0  0  0  0
  -13.3224   13.8616  -28.2902 C   0  0  0  0  0  0  0  0  0  0  0  0
  -17.4929   13.3174  -29.2687 C   0  0  0  0  0  0  0  0  0  0  0  0
  -18.4211   14.0829  -29.9614 C   0  0  0  0  0  0  0  0  0  0  0  0
  -20.3594   15.7104  -31.4042 C   0  0  0  0  0  0  0  0  0  0  0  0
  -21.2836   17.1354  -32.0137 S   0  0  0  0  0  0  0  0  0  0  0  0
  2  3  1  0
  3  4  2  0
  4  5  1  0
  5  6  1  0
  6  7  2  0
  7  8  1  0
  8  9  2  0
  9 10  1  0
 10 11  1  0
 11 12  2  0
 12 13  1  0
 13 14  2  0
 14 15  1  0
 15 16  2  0
  9 17  1  0
 17 18  2  0
  5 19  2  0
 19 20  1  0
 20  3  1  0
 18  6  1  0
 16 11  1  0
M  END
$$$$
