
     RDKit          3D

 12 12  0  0  0  0  0  0  0  0999 V2000
  -16.2497   40.0060  -23.9605 O   0  0  0  0  0  0  0  0  0  0  0  0
  -17.2909   40.4071  -23.4108 C   0  0  0  0  0  0  0  0  0  0  0  0
  -17.6892   41.7099  -23.6768 O   0  0  0  0  0  0  0  0  0  0  0  0
  -18.0993   39.5876  -22.5154 C   0  0  0  0  0  0  0  0  0  0  0  0
  -19.2440   40.0964  -21.9429 C   0  0  0  0  0  0  0  0  0  0  0  0
  -20.0393   39.3602  -21.0911 C   0  0  0  0  0  0  0  0  0  0  0  0
  -19.6450   38.0947  -20.8341 N   0  0  0  0  0  0  0  0  0  0  0  0
  -18.5597   37.5104  -21.3344 C   0  0  0  0  0  0  0  0  0  0  0  0
  -18.1657   36.1405  -21.0336 C   0  0  0  0  0  0  0  0  0  0  0  0
  -18.8509   35.4591  -20.2379 O   0  0  0  0  0  0  0  0  0  0  0  0
  -17.0529   35.5413  -21.5916 O   0  0  0  0  0  0  0  0  0  0  0  0
  -17.7729   38.2848  -22.1962 C   0  0  0  0  0  0  0  0  0  0  0  0
  1  2  2  0
  2  3  1  0
  2  4  1  0
  4  5  2  0
  5  6  1  0
  6  7  2  0
  7  8  1  0
  8  9  1  0
  9 10  2  0
  9 11  1  0
  8 12  2  0
 12  4  1  0
M  END
$$$$
