
     RDKit          3D

 13 13  0  0  0  0  0  0  0  0999 V2000
  -16.8009   37.9440  -22.2697 O   0  0  0  0  0  0  0  0  0  0  0  0
  -17.8344   37.3906  -21.8395 C   0  0  0  0  0  0  0  0  0  0  0  0
  -18.7911   38.1895  -21.2457 O   0  0  0  0  0  0  0  0  0  0  0  0
  -18.1054   35.9568  -21.9190 C   0  0  0  0  0  0  0  0  0  0  0  0
  -19.3072   35.4550  -21.7268 C   0  0  0  0  0  0  0  0  0  0  0  0
  -19.6067   34.0367  -21.8198 C   0  0  0  0  0  0  0  0  0  0  0  0
  -20.7524   33.5564  -21.1794 C   0  0  0  0  0  0  0  0  0  0  0  0
  -21.0913   32.2198  -21.2305 C   0  0  0  0  0  0  0  0  0  0  0  0
  -20.2846   31.3183  -21.9310 C   0  0  0  0  0  0  0  0  0  0  0  0
  -20.6620   29.9825  -21.9573 O   0  0  0  0  0  0  0  0  0  0  0  0
  -19.1635   31.7733  -22.5607 C   0  0  0  0  0  0  0  0  0  0  0  0
  -18.3850   30.8511  -23.2472 O   0  0  0  0  0  0  0  0  0  0  0  0
  -18.8557   33.1081  -22.4899 C   0  0  0  0  0  0  0  0  0  0  0  0
  1  2  2  0
  2  3  1  0
  2  4  1  0
  4  5  2  0
  5  6  1  0
  6  7  2  0
  7  8  1  0
  8  9  2  0
  9 10  1  0
  9 11  1  0
 11 12  1  0
 11 13  2  0
 13  6  1  0
M  END
$$$$
