
     RDKit          3D

 29 30  0  0  0  0  0  0  0  0999 V2000
  -15.5821   14.0787  -47.6420 C   0  0  0  0  0  0  0  0  0  0  0  0
  -14.1859   14.4507  -47.5419 N   0  0  0  0  0  0  0  0  0  0  0  0
  -13.2348   13.8203  -48.4040 C   0  0  0  0  0  0  0  0  0  0  0  0
  -13.7765   15.4368  -46.5946 C   0  0  0  0  0  0  0  0  0  0  0  0
  -14.6678   16.0532  -45.7628 C   0  0  0  0  0  0  0  0  0  0  0  0
  -14.3285   17.0141  -44.8329 C   0  0  0  0  0  0  0  0  0  0  0  0
  -13.0007   17.3894  -44.7236 C   0  0  0  0  0  0  0  0  0  0  0  0
  -12.6324   18.3797  -43.7144 C   0  0  0  0  0  0  0  0  0  0  0  0
  -11.9286   19.4601  -43.9536 C   0  0  0  0  0  0  0  0  0  0  0  0
  -11.5576   20.4384  -42.9192 C   0  0  0  0  0  0  0  0  0  0  0  0
  -10.8950   21.5493  -43.2168 C   0  0  0  0  0  0  0  0  0  0  0  0
  -10.5096   21.8375  -44.5913 C   0  0  0  0  0  0  0  0  0  0  0  0
   -9.8718   22.8942  -44.9307 N   0  0  0  0  0  4  0  0  0  0  0  0
   -9.5209   23.1209  -46.3022 C   0  0  0  0  0  0  0  0  0  0  0  0
   -9.5099   23.8529  -43.9230 C   0  0  0  0  0  0  0  0  0  0  0  0
  -10.8748   20.8692  -45.6248 C   0  0  0  0  0  0  0  0  0  0  0  0
  -11.5409   19.7509  -45.3362 C   0  0  0  0  0  0  0  0  0  0  0  0
  -13.1623   18.1274  -42.3763 C   0  0  0  0  0  0  0  0  0  0  0  0
  -12.9447   16.8872  -41.7712 C   0  0  0  0  0  0  0  0  0  0  0  0
  -13.4540   16.6052  -40.5428 C   0  0  0  0  0  0  0  0  0  0  0  0
  -14.1978   17.4890  -39.8244 C   0  0  0  0  0  0  0  0  0  0  0  0
  -14.7114   17.1577  -38.5457 N   0  0  0  0  0  0  0  0  0  0  0  0
  -14.4321   15.8497  -38.0020 C   0  0  0  0  0  0  0  0  0  0  0  0
  -15.5067   18.1358  -37.8083 C   0  0  0  0  0  0  0  0  0  0  0  0
  -14.4320   18.7338  -40.4016 C   0  0  0  0  0  0  0  0  0  0  0  0
  -13.9139   19.0212  -41.6523 C   0  0  0  0  0  0  0  0  0  0  0  0
  -12.0733   16.7753  -45.5596 C   0  0  0  0  0  0  0  0  0  0  0  0
  -12.4499   15.8174  -46.4787 C   0  0  0  0  0  0  0  0  0  0  0  0
  -12.9150   18.2390  -43.7061 Cl  0  0  0  0  0 15  0  0  0  0  0  0
  1  2  1  0
  2  3  1  0
  2  4  1  0
  4  5  2  0
  5  6  1  0
  6  7  2  0
  7  8  1  0
  8  9  2  3
  9 10  1  0
 10 11  2  0
 11 12  1  0
 12 13  2  3
 13 14  1  0
 13 15  1  0
 12 16  1  0
 16 17  2  0
  8 18  1  0
 18 19  2  0
 19 20  1  0
 20 21  2  0
 21 22  1  0
 22 23  1  0
 22 24  1  0
 21 25  1  0
 25 26  2  0
  7 27  1  0
 27 28  2  0
 28  4  1  0
 17  9  1  0
 26 18  1  0
M  CHG  2  13   1  29  -1
M  END
$$$$
