
     RDKit          3D

 37 39  0  0  0  0  0  0  0  0999 V2000
  -25.7032   21.7469  -31.2656 C   0  0  0  0  0  0  0  0  0  0  0  0
  -24.6551   21.0230  -31.7858 O   0  0  0  0  0  0  0  0  0  0  0  0
  -23.4639   21.7077  -31.8192 C   0  0  0  0  0  0  0  0  0  0  0  0
  -22.3617   20.8440  -32.3119 C   0  0  2  0  0  0  0  0  0  0  0  0
  -22.5748   20.4067  -33.6944 N   0  0  0  0  0  0  0  0  0  0  0  0
  -21.5636   19.8909  -34.5049 C   0  0  0  0  0  0  0  0  0  0  0  0
  -20.4120   19.7649  -34.0104 O   0  0  0  0  0  0  0  0  0  0  0  0
  -21.7784   19.4884  -35.9011 C   0  0  0  0  0  0  0  0  0  0  0  0
  -21.0563   19.5111  -37.0288 C   0  0  0  0  0  0  0  0  0  0  0  0
  -21.6401   19.0398  -38.1039 N   0  0  0  0  0  0  0  0  0  0  0  0
  -22.6939   18.5969  -38.2603 C   0  0  0  0  0  0  0  0  0  0  0  0
  -23.6464   17.9976  -39.2823 C   0  0  0  0  0  0  0  0  0  0  0  0
  -23.3697   18.7406  -36.4800 S   0  0  0  0  0  0  0  0  0  0  0  0
  -22.0704   19.6616  -31.4481 C   0  0  0  0  0  0  0  0  0  0  0  0
  -21.8796   19.7968  -30.2173 O   0  0  0  0  0  0  0  0  0  0  0  0
  -22.0001   18.3566  -31.9844 N   0  0  0  0  0  0  0  0  0  0  0  0
  -22.1714   17.1825  -31.1163 C   0  0  1  0  0  0  0  0  0  0  0  0
  -23.2098   16.2614  -31.7298 C   0  0  0  0  0  0  0  0  0  0  0  0
  -22.8834   16.0360  -33.0558 O   0  0  0  0  0  0  0  0  0  0  0  0
  -23.6267   14.9779  -33.5966 C   0  0  0  0  0  0  0  0  0  0  0  0
  -20.8874   16.4755  -31.0317 C   0  0  0  0  0  0  0  0  0  0  0  0
  -20.8620   15.2412  -30.7495 O   0  0  0  0  0  0  0  0  0  0  0  0
  -19.6278   17.1108  -31.2599 N   0  0  0  0  0  0  0  0  0  0  0  0
  -18.3913   16.3739  -31.0100 C   0  0  1  0  0  0  0  0  0  0  0  0
  -17.2107   17.3593  -31.2766 C   0  0  0  0  0  0  0  0  0  0  0  0
  -17.3448   18.0127  -32.5949 C   0  0  0  0  0  0  0  0  0  0  0  0
  -17.0927   17.3234  -33.7835 C   0  0  0  0  0  0  0  0  0  0  0  0
  -17.2305   17.9442  -35.0074 C   0  0  0  0  0  0  0  0  0  0  0  0
  -17.6283   19.2832  -35.0941 C   0  0  0  0  0  0  0  0  0  0  0  0
  -17.8786   19.9686  -33.9247 C   0  0  0  0  0  0  0  0  0  0  0  0
  -17.7340   19.3261  -32.6963 C   0  0  0  0  0  0  0  0  0  0  0  0
  -18.2485   15.7525  -29.7027 C   0  0  0  0  0  0  0  0  0  0  0  0
  -19.0505   16.1795  -28.8227 O   0  0  0  0  0  0  0  0  0  0  0  0
  -17.3445   14.7215  -29.2296 C   0  0  1  0  0  0  0  0  0  0  0  0
  -16.7284   14.9370  -27.8519 C   0  0  0  0  0  0  0  0  0  0  0  0
  -17.2031   13.4036  -29.7778 C   0  0  0  0  0  0  0  0  0  0  0  0
  -16.2824   14.4081  -30.1993 O   0  0  0  0  0  0  0  0  0  0  0  0
  1  2  1  0
  2  3  1  0
  4  3  1  1
  4  5  1  0
  5  6  1  0
  6  7  2  0
  6  8  1  0
  8  9  2  0
  9 10  1  0
 10 11  2  0
 11 12  1  0
 11 13  1  0
  4 14  1  0
 14 15  2  0
 14 16  1  0
 16 17  1  0
 17 18  1  6
 18 19  1  0
 19 20  1  0
 17 21  1  0
 21 22  2  0
 21 23  1  0
 23 24  1  0
 24 25  1  1
 25 26  1  0
 26 27  2  0
 27 28  1  0
 28 29  2  0
 29 30  1  0
 30 31  2  0
 24 32  1  0
 32 33  2  0
 32 34  1  0
 34 35  1  1
 34 36  1  0
 36 37  1  0
 13  8  1  0
 31 26  1  0
 37 34  1  0
M  END
$$$$
