
     RDKit          3D

 36 40  0  0  0  0  0  0  0  0999 V2000
  -11.9642   44.7573  -16.6422 C   0  0  0  0  0  0  0  0  0  0  0  0
  -12.9983   43.7929  -16.5392 O   0  0  0  0  0  0  0  0  0  0  0  0
  -14.0650   43.8380  -17.4263 C   0  0  0  0  0  0  0  0  0  0  0  0
  -15.1272   42.9682  -17.3537 C   0  0  0  0  0  0  0  0  0  0  0  0
  -16.2056   42.9887  -18.2231 C   0  0  0  0  0  0  0  0  0  0  0  0
  -16.2293   43.9313  -19.2260 C   0  0  0  0  0  0  0  0  0  0  0  0
  -17.3163   44.0383  -20.1769 C   0  0  0  0  0  0  0  0  0  0  0  0
  -17.7143   45.2191  -20.4740 O   0  0  0  0  0  0  0  0  0  0  0  0
  -18.0104   42.9325  -20.8380 C   0  0  0  0  0  0  0  0  0  0  0  0
  -18.7262   43.2910  -22.1060 C   0  0  0  0  0  0  0  0  0  0  0  0
  -19.1920   41.9967  -22.7273 C   0  0  0  0  0  0  0  0  0  0  0  0
  -18.0872   41.2597  -23.3161 N   0  0  0  0  0  0  0  0  0  0  0  0
  -18.4099   39.8573  -23.4604 C   0  0  0  0  0  0  0  0  0  0  0  0
  -19.7382   39.5904  -22.9122 C   0  0  0  0  0  0  0  0  0  0  0  0
  -20.4016   40.5397  -22.4069 O   0  0  0  0  0  0  0  0  0  0  0  0
  -20.2974   38.2694  -22.9494 N   0  0  0  0  0  0  0  0  0  0  0  0
  -19.5426   37.1539  -23.4968 C   0  0  0  0  0  0  0  0  0  0  0  0
  -19.4343   36.0548  -22.5019 C   0  0  0  0  0  0  0  0  0  0  0  0
  -19.4255   34.7586  -22.8235 N   0  0  0  0  0  0  0  0  0  0  0  0
  -19.3269   33.7582  -21.9452 C   0  0  0  0  0  0  0  0  0  0  0  0
  -19.2245   34.0439  -20.5983 C   0  0  0  0  0  0  0  0  0  0  0  0
  -19.2315   35.3765  -20.2456 C   0  0  0  0  0  0  0  0  0  0  0  0
  -19.1386   35.6766  -19.0082 O   0  0  0  0  0  0  0  0  0  0  0  0
  -19.3334   36.3452  -21.1727 N   0  0  0  0  0  0  0  0  0  0  0  0
  -19.1132   32.9682  -19.5787 C   0  0  0  0  0  0  0  0  0  0  0  0
  -19.9073   31.9027  -20.0523 O   0  0  0  0  0  0  0  0  0  0  0  0
  -19.2601   31.4043  -21.1724 C   0  0  0  0  0  0  0  0  0  0  0  0
  -19.3239   32.3252  -22.3489 C   0  0  0  0  0  0  0  0  0  0  0  0
  -21.6396   38.0659  -22.4996 C   0  0  0  0  0  0  0  0  0  0  0  0
  -22.6786   37.9505  -23.5567 C   0  0  0  0  0  0  0  0  0  0  0  0
  -24.0627   38.4280  -23.4918 C   0  0  0  0  0  0  0  0  0  0  0  0
  -23.8138   36.9349  -23.2248 C   0  0  0  0  0  0  0  0  0  0  0  0
  -16.8682   41.4702  -22.5685 C   0  0  0  0  0  0  0  0  0  0  0  0
  -17.0802   41.8054  -21.1122 C   0  0  0  0  0  0  0  0  0  0  0  0
  -15.1537   44.8110  -19.2999 C   0  0  0  0  0  0  0  0  0  0  0  0
  -14.0896   44.7797  -18.4300 C   0  0  0  0  0  0  0  0  0  0  0  0
  1  2  1  0
  2  3  1  0
  3  4  2  0
  4  5  1  0
  5  6  2  0
  6  7  1  0
  7  8  2  0
  7  9  1  0
  9 10  1  0
 10 11  1  0
 11 12  1  0
 12 13  1  0
 13 14  1  0
 14 15  2  0
 14 16  1  0
 16 17  1  0
 17 18  1  0
 18 19  2  0
 19 20  1  0
 20 21  2  0
 21 22  1  0
 22 23  2  0
 22 24  1  0
 21 25  1  0
 25 26  1  0
 26 27  1  0
 27 28  1  0
 16 29  1  0
 29 30  1  0
 30 31  1  0
 31 32  1  0
 12 33  1  0
 33 34  1  0
  6 35  1  0
 35 36  2  0
 36  3  1  0
 34  9  1  0
 24 18  1  0
 32 30  1  0
 28 20  1  0
M  END
$$$$
