
     RDKit          3D

 31 33  0  0  0  0  0  0  0  0999 V2000
  -22.6573   22.4611  -35.0765 C   0  0  0  0  0  0  0  0  0  0  0  0
  -22.3030   21.0892  -35.6326 C   0  0  0  0  0  0  0  0  0  0  0  0
  -23.3390   20.1907  -35.2180 O   0  0  0  0  0  0  0  0  0  0  0  0
  -23.1978   19.6111  -33.9659 C   0  0  0  0  0  0  0  0  0  0  0  0
  -22.9546   20.3212  -32.9650 O   0  0  0  0  0  0  0  0  0  0  0  0
  -23.3355   18.1312  -33.8045 C   0  0  0  0  0  0  0  0  0  0  0  0
  -24.5261   17.8316  -32.9083 C   0  0  0  0  0  0  0  0  0  0  0  0
  -22.1938   17.5771  -33.2405 O   0  0  0  0  0  0  0  0  0  0  0  0
  -21.3746   18.1065  -32.2809 C   0  0  0  0  0  0  0  0  0  0  0  0
  -21.7012   19.1587  -31.4697 C   0  0  0  0  0  0  0  0  0  0  0  0
  -20.8124   19.6491  -30.5079 C   0  0  0  0  0  0  0  0  0  0  0  0
  -19.5694   19.0786  -30.3503 C   0  0  0  0  0  0  0  0  0  0  0  0
  -19.2237   18.0025  -31.1733 C   0  0  0  0  0  0  0  0  0  0  0  0
  -17.9952   17.4224  -31.0334 C   0  0  0  0  0  0  0  0  0  0  0  0
  -17.2066   17.8711  -30.1673 O   0  0  0  0  0  0  0  0  0  0  0  0
  -17.6172   16.3970  -31.7910 N   0  0  0  0  0  0  0  0  0  0  0  0
  -16.3180   15.7534  -31.6726 C   0  0  0  0  0  0  0  0  0  0  0  0
  -16.2415   14.8896  -30.4828 C   0  0  0  0  0  0  0  0  0  0  0  0
  -17.1696   14.0728  -30.2504 O   0  0  0  0  0  0  0  0  0  0  0  0
  -15.1554   14.9341  -29.5713 N   0  0  0  0  0  0  0  0  0  0  0  0
  -14.7077   13.8133  -28.8199 C   0  0  0  0  0  0  0  0  0  0  0  0
  -15.5948   12.9781  -28.1730 C   0  0  0  0  0  0  0  0  0  0  0  0
  -15.1494   11.8936  -27.4466 C   0  0  0  0  0  0  0  0  0  0  0  0
  -13.8030   11.5932  -27.3323 C   0  0  0  0  0  0  0  0  0  0  0  0
  -13.4228   10.4864  -26.5856 O   0  0  0  0  0  0  0  0  0  0  0  0
  -14.3165    9.7945  -25.7577 C   0  0  0  0  0  0  0  0  0  0  0  0
  -12.9072   12.4214  -27.9749 C   0  0  0  0  0  0  0  0  0  0  0  0
  -13.3594   13.5066  -28.7014 C   0  0  0  0  0  0  0  0  0  0  0  0
  -18.4707   15.9311  -32.7098 C   0  0  0  0  0  0  0  0  0  0  0  0
  -19.7316   16.4759  -32.9012 C   0  0  0  0  0  0  0  0  0  0  0  0
  -20.1201   17.5395  -32.1134 C   0  0  0  0  0  0  0  0  0  0  0  0
  1  2  1  0
  2  3  1  0
  3  4  1  0
  4  5  2  0
  4  6  1  0
  6  7  1  0
  6  8  1  0
  8  9  1  0
  9 10  2  0
 10 11  1  0
 11 12  2  0
 12 13  1  0
 13 14  1  0
 14 15  2  0
 14 16  1  0
 16 17  1  0
 17 18  1  0
 18 19  2  0
 18 20  1  0
 20 21  1  0
 21 22  2  0
 22 23  1  0
 23 24  2  0
 24 25  1  0
 25 26  1  0
 24 27  1  0
 27 28  2  0
 16 29  1  0
 29 30  2  0
 30 31  1  0
 31  9  1  0
 31 13  2  0
 28 21  1  0
M  END
$$$$
