
     RDKit          3D

 29 31  0  0  0  0  0  0  0  0999 V2000
  -31.0970   12.9213  -19.5893 Cl  0  0  0  0  0  0  0  0  0  0  0  0
  -31.0796   17.7835  -22.5117 O   0  0  0  0  0  0  0  0  0  0  0  0
  -30.0576   17.0512  -22.2869 C   0  0  0  0  0  0  0  0  0  0  0  0
  -28.8091   17.5864  -22.6920 N   0  0  0  0  0  0  0  0  0  0  0  0
  -27.6727   16.7411  -22.4269 C   0  0  0  0  0  0  0  0  0  0  0  0
  -26.4141   17.2401  -22.8183 C   0  0  0  0  0  0  0  0  0  0  0  0
  -25.2687   16.5140  -22.6133 C   0  0  0  0  0  0  0  0  0  0  0  0
  -25.4288   15.2849  -22.0094 C   0  0  0  0  0  0  0  0  0  0  0  0
  -26.6381   14.7945  -21.6281 C   0  0  0  0  0  0  0  0  0  0  0  0
  -27.8199   15.5263  -21.8313 C   0  0  0  0  0  0  0  0  0  0  0  0
  -29.1021   14.9832  -21.4146 C   0  0  0  0  0  0  0  0  0  0  0  0
  -29.0367   14.8908  -19.8706 C   0  0  0  0  0  0  0  0  0  0  0  0
  -30.3224   14.2550  -19.3712 C   0  0  0  0  0  0  0  0  0  0  0  0
  -30.2854   12.8816  -19.8826 N   0  0  0  0  0  0  0  0  0  0  0  0
  -31.1102   12.0009  -19.1301 C   0  0  0  0  0  0  0  0  0  0  0  0
  -32.5856   12.2398  -19.2509 C   0  0  0  0  0  0  0  0  0  0  0  0
  -33.3052   11.2541  -18.4066 C   0  0  0  0  0  0  0  0  0  0  0  0
  -33.6969   10.0404  -18.9002 C   0  0  0  0  0  0  0  0  0  0  0  0
  -34.3585    9.1734  -18.0650 C   0  0  0  0  0  0  0  0  0  0  0  0
  -34.6481    9.4656  -16.7513 C   0  0  0  0  0  0  0  0  0  0  0  0
  -35.3655    8.4757  -15.9111 C   0  0  0  0  0  0  0  0  0  0  0  0
  -35.1306    7.1744  -16.3101 F   0  0  0  0  0  0  0  0  0  0  0  0
  -36.7121    8.7011  -15.9597 F   0  0  0  0  0  0  0  0  0  0  0  0
  -34.9499    8.5880  -14.5865 F   0  0  0  0  0  0  0  0  0  0  0  0
  -34.2547   10.6977  -16.2367 C   0  0  0  0  0  0  0  0  0  0  0  0
  -33.5919   11.5647  -17.0765 C   0  0  0  0  0  0  0  0  0  0  0  0
  -30.5298   12.9410  -21.2866 C   0  0  0  0  0  0  0  0  0  0  0  0
  -29.3487   13.5959  -21.9840 C   0  0  0  0  0  0  0  0  0  0  0  0
  -30.1723   15.8183  -21.6869 O   0  0  0  0  0  0  0  0  0  0  0  0
  2  3  2  0
  3  4  1  0
  4  5  1  0
  5  6  2  0
  6  7  1  0
  7  8  2  0
  8  9  1  0
  9 10  2  0
 10 11  1  0
 11 12  1  0
 12 13  1  0
 13 14  1  0
 14 15  1  0
 15 16  1  0
 16 17  1  0
 17 18  2  0
 18 19  1  0
 19 20  2  0
 20 21  1  0
 21 22  1  0
 21 23  1  0
 21 24  1  0
 20 25  1  0
 25 26  2  0
 14 27  1  0
 27 28  1  0
 11 29  1  0
 29  3  1  0
 10  5  1  0
 28 11  1  0
 26 17  1  0
M  END
$$$$
