
     RDKit          3D

 15 15  0  0  0  0  0  0  0  0999 V2000
  -11.9406   12.7069  -25.5093 C   0  0  0  0  0  0  0  0  0  0  0  0
  -13.1931   12.8834  -26.1100 O   0  0  0  0  0  0  0  0  0  0  0  0
  -13.4260   13.1727  -27.4400 C   0  0  0  0  0  0  0  0  0  0  0  0
  -12.4191   13.3246  -28.3627 C   0  0  0  0  0  0  0  0  0  0  0  0
  -12.6835   13.6190  -29.7021 C   0  0  0  0  0  0  0  0  0  0  0  0
  -13.9773   13.7692  -30.1505 C   0  0  0  0  0  0  0  0  0  0  0  0
  -14.5237   14.0531  -31.3607 N   0  0  0  0  0  0  0  0  0  0  0  0
  -15.8595   14.0917  -31.2634 C   0  0  0  0  0  0  0  0  0  0  0  0
  -16.1648   13.8231  -29.9447 C   0  0  0  0  0  0  0  0  0  0  0  0
  -17.5504   13.7685  -29.3930 C   0  0  0  0  0  0  0  0  0  0  0  0
  -18.4795   13.5175  -30.5657 C   0  0  0  0  0  0  0  0  0  0  0  0
  -19.8722   13.4402  -30.1701 N   0  0  0  0  0  4  0  0  0  0  0  0
  -14.9957   13.6182  -29.2323 C   0  0  0  0  0  0  0  0  0  0  0  0
  -14.7288   13.3249  -27.8995 C   0  0  0  0  0  0  0  0  0  0  0  0
  -15.3998   13.4580  -29.0699 Cl  0  0  0  0  0 15  0  0  0  0  0  0
  1  2  1  0
  2  3  1  0
  3  4  2  0
  4  5  1  0
  5  6  2  0
  6  7  1  0
  7  8  1  0
  8  9  2  0
  9 10  1  0
 10 11  1  0
 11 12  1  0
  9 13  1  0
 13 14  2  0
 14  3  1  0
 13  6  1  0
M  CHG  2  12   1  15  -1
M  END
$$$$
