
     RDKit          3D

 12 13  0  0  0  0  0  0  0  0999 V2000
  -21.0864   40.7025  -22.9586 C   0  0  0  0  0  0  0  0  0  0  0  0
  -20.5752   39.8658  -21.9340 N   0  0  0  0  0  0  0  0  0  0  0  0
  -21.0225   38.4978  -22.2682 C   0  0  0  0  0  0  0  0  0  0  0  0
  -19.9374   37.9252  -23.1404 C   0  0  0  0  0  0  0  0  0  0  0  0
  -18.8405   38.9691  -23.1364 C   0  0  0  0  0  0  0  0  0  0  0  0
  -19.1895   39.6817  -21.8234 C   0  0  0  0  0  0  0  0  0  0  0  0
  -18.3091   40.7621  -21.4976 C   0  0  0  0  0  0  0  0  0  0  0  0
  -17.7176   41.6569  -22.3529 C   0  0  0  0  0  0  0  0  0  0  0  0
  -16.8862   42.6599  -21.9400 C   0  0  0  0  0  0  0  0  0  0  0  0
  -16.6255   42.7824  -20.5933 C   0  0  0  0  0  0  0  0  0  0  0  0
  -17.1716   41.9442  -19.7278 N   0  0  0  0  0  0  0  0  0  0  0  0
  -17.9867   40.9633  -20.1477 C   0  0  0  0  0  0  0  0  0  0  0  0
  1  2  1  0
  2  3  1  0
  3  4  1  0
  4  5  1  0
  5  6  1  0
  6  7  1  0
  7  8  2  0
  8  9  1  0
  9 10  2  0
 10 11  1  0
 11 12  2  0
  6  2  1  0
 12  7  1  0
M  END
$$$$
