
     RDKit          3D

 23 24  0  0  0  0  0  0  0  0999 V2000
  -22.4137   36.7309  -24.8737 C   0  0  0  0  0  0  0  0  0  0  0  0
  -22.3030   36.4386  -23.4730 O   0  0  0  0  0  0  0  0  0  0  0  0
  -21.0876   36.5681  -22.8161 C   0  0  0  0  0  0  0  0  0  0  0  0
  -20.2260   35.4749  -22.7360 C   0  0  0  0  0  0  0  0  0  0  0  0
  -20.6649   34.2130  -23.3620 C   0  0  0  0  0  0  0  0  0  0  0  0
  -19.0153   35.5708  -22.0963 C   0  0  0  0  0  0  0  0  0  0  0  0
  -18.6529   36.7889  -21.5205 C   0  0  0  0  0  0  0  0  0  0  0  0
  -19.5275   37.8471  -21.6178 C   0  0  0  0  0  0  0  0  0  0  0  0
  -19.1680   39.0537  -21.0472 O   0  0  0  0  0  0  0  0  0  0  0  0
  -20.7631   37.7792  -22.2605 C   0  0  0  0  0  0  0  0  0  0  0  0
  -21.6440   38.9739  -22.2804 C   0  0  0  0  0  0  0  0  0  0  0  0
  -21.0934   39.9149  -23.2850 C   0  0  0  0  0  0  0  0  0  0  0  0
  -21.6713   41.0359  -23.6722 C   0  0  0  0  0  0  0  0  0  0  0  0
  -23.1326   41.1485  -23.6002 C   0  0  0  0  0  0  0  0  0  0  0  0
  -20.7934   42.1360  -24.1790 C   0  0  0  0  0  0  0  0  0  0  0  0
  -21.3475   42.8451  -25.3598 C   0  0  0  0  0  0  0  0  0  0  0  0
  -20.5446   44.0046  -25.8209 C   0  0  0  0  0  0  0  0  0  0  0  0
  -20.7423   44.5641  -26.9296 O   0  0  0  0  0  0  0  0  0  0  0  0
  -19.5054   44.5583  -25.0483 O   0  0  0  0  0  0  0  0  0  0  0  0
  -17.3324   36.6376  -20.9017 C   0  0  0  0  0  0  0  0  0  0  0  0
  -16.7343   37.5624  -20.3018 O   0  0  0  0  0  0  0  0  0  0  0  0
  -16.9497   35.3418  -21.1262 O   0  0  0  0  0  0  0  0  0  0  0  0
  -17.9059   34.6182  -21.8499 C   0  0  0  0  0  0  0  0  0  0  0  0
  1  2  1  0
  2  3  1  0
  3  4  2  0
  4  5  1  0
  4  6  1  0
  6  7  2  0
  7  8  1  0
  8  9  1  0
  8 10  2  0
 10 11  1  0
 11 12  1  0
 12 13  2  0
 13 14  1  0
 13 15  1  0
 15 16  1  0
 16 17  1  0
 17 18  2  0
 17 19  1  0
  7 20  1  0
 20 21  2  0
 20 22  1  0
 22 23  1  0
 10  3  1  0
 23  6  1  0
M  END
$$$$
