
     RDKit          3D

 15 15  0  0  0  0  0  0  0  0999 V2000
  -21.4134   33.6560  -22.3909 C   0  0  0  0  0  0  0  0  0  0  0  0
  -19.9219   33.6971  -22.1084 C   0  0  1  0  0  0  0  0  0  0  0  0
  -19.7376   33.0425  -20.8138 N   0  0  0  0  0  0  0  0  0  0  0  0
  -19.1241   33.0066  -23.1242 C   0  0  0  0  0  0  0  0  0  0  0  0
  -19.2181   33.3406  -24.3536 O   0  0  0  0  0  0  0  0  0  0  0  0
  -18.2523   31.9920  -22.8299 O   0  0  0  0  0  0  0  0  0  0  0  0
  -19.5127   35.1188  -22.0227 C   0  0  0  0  0  0  0  0  0  0  0  0
  -18.3290   35.4905  -21.4035 C   0  0  0  0  0  0  0  0  0  0  0  0
  -17.9899   36.8191  -21.3301 C   0  0  0  0  0  0  0  0  0  0  0  0
  -18.7648   37.8373  -21.8429 C   0  0  0  0  0  0  0  0  0  0  0  0
  -18.3447   39.2304  -21.7308 C   0  0  0  0  0  0  0  0  0  0  0  0
  -17.2925   39.5284  -21.1142 O   0  0  0  0  0  0  0  0  0  0  0  0
  -19.0779   40.2555  -22.2902 O   0  0  0  0  0  0  0  0  0  0  0  0
  -19.9330   37.4545  -22.4524 C   0  0  0  0  0  0  0  0  0  0  0  0
  -20.3053   36.1042  -22.5420 C   0  0  0  0  0  0  0  0  0  0  0  0
  2  1  1  6
  2  3  1  0
  2  4  1  0
  4  5  2  0
  4  6  1  0
  2  7  1  0
  7  8  2  0
  8  9  1  0
  9 10  2  0
 10 11  1  0
 11 12  2  0
 11 13  1  0
 10 14  1  0
 14 15  2  0
 15  7  1  0
M  END
$$$$
