
     RDKit          3D

 21 23  0  0  0  0  0  0  0  0999 V2000
  -16.9365   47.0878  -19.0425 C   0  0  0  0  0  0  0  0  0  0  0  0
  -17.0406   45.6471  -18.9648 N   0  0  0  0  0  0  0  0  0  0  0  0
  -16.0491   45.0704  -19.8715 C   0  0  0  0  0  0  0  0  0  0  0  0
  -16.5861   45.5332  -21.2227 C   0  0  0  0  0  0  0  0  0  0  0  0
  -18.0765   45.5627  -21.0697 C   0  0  0  0  0  0  0  0  0  0  0  0
  -18.2677   45.2502  -19.6008 C   0  0  1  0  0  0  0  0  0  0  0  0
  -18.5067   43.7992  -19.4273 C   0  0  0  0  0  0  0  0  0  0  0  0
  -17.2809   42.9593  -19.2801 C   0  0  1  0  0  0  0  0  0  0  0  0
  -17.5074   41.6624  -19.8097 O   0  0  0  0  0  0  0  0  0  0  0  0
  -18.7097   41.2384  -20.3300 C   0  0  0  0  0  0  0  0  0  0  0  0
  -19.7237   41.3717  -19.5721 O   0  0  0  0  0  0  0  0  0  0  0  0
  -18.8459   40.6544  -21.6955 C   0  0  2  0  0  0  0  0  0  0  0  0
  -20.1058   41.2092  -22.3630 C   0  0  0  0  0  0  0  0  0  0  0  0
  -20.0944   40.9455  -23.7148 O   0  0  0  0  0  0  0  0  0  0  0  0
  -18.9055   39.1919  -21.6315 C   0  0  0  0  0  0  0  0  0  0  0  0
  -17.8329   38.4670  -22.1125 C   0  0  0  0  0  0  0  0  0  0  0  0
  -17.8614   37.0901  -22.0651 C   0  0  0  0  0  0  0  0  0  0  0  0
  -18.9657   36.4751  -21.5360 C   0  0  0  0  0  0  0  0  0  0  0  0
  -20.0504   37.1936  -21.0491 C   0  0  0  0  0  0  0  0  0  0  0  0
  -20.0182   38.5716  -21.0983 C   0  0  0  0  0  0  0  0  0  0  0  0
  -16.0295   43.5836  -19.7954 C   0  0  0  0  0  0  0  0  0  0  0  0
  1  2  1  0
  2  3  1  0
  3  4  1  0
  4  5  1  0
  6  5  1  6
  6  7  1  0
  7  8  1  0
  8  9  1  6
  9 10  1  0
 10 11  2  0
 10 12  1  0
 12 13  1  1
 13 14  1  0
 12 15  1  0
 15 16  2  0
 16 17  1  0
 17 18  2  0
 18 19  1  0
 19 20  2  0
  8 21  1  0
  6  2  1  0
 20 15  1  0
 21  3  1  0
M  END
$$$$
