
     RDKit          3D

 28 30  0  0  0  0  0  0  0  0999 V2000
  -15.6934   17.8633  -30.3667 C   0  0  0  0  0  0  0  0  0  0  0  0
  -17.1214   17.3870  -30.3956 C   0  0  0  0  0  0  0  0  0  0  0  0
  -18.0997   18.2864  -30.8380 C   0  0  0  0  0  0  0  0  0  0  0  0
  -17.6764   19.5576  -31.1478 F   0  0  0  0  0  0  0  0  0  0  0  0
  -19.4161   17.9369  -30.9622 C   0  0  0  0  0  0  0  0  0  0  0  0
  -19.8178   16.6698  -30.6497 C   0  0  0  0  0  0  0  0  0  0  0  0
  -21.2318   16.2499  -30.7711 C   0  0  0  0  0  0  0  0  0  0  0  0
  -21.5329   15.1283  -30.3231 O   0  0  0  0  0  0  0  0  0  0  0  0
  -22.2316   17.0323  -31.3524 N   0  0  0  0  0  0  0  0  0  0  0  0
  -23.5948   16.5985  -31.5719 C   0  0  0  0  0  0  0  0  0  0  0  0
  -24.7311   17.5075  -31.5448 C   0  0  0  0  0  0  0  0  0  0  0  0
  -24.4525   16.6909  -30.2907 C   0  0  0  0  0  0  0  0  0  0  0  0
  -18.8784   15.7834  -30.2167 C   0  0  0  0  0  0  0  0  0  0  0  0
  -17.5234   16.1278  -30.0829 C   0  0  0  0  0  0  0  0  0  0  0  0
  -16.6235   15.0497  -29.6501 C   0  0  0  0  0  0  0  0  0  0  0  0
  -16.2861   13.9751  -30.4113 C   0  0  0  0  0  0  0  0  0  0  0  0
  -15.3696   13.0656  -29.8869 C   0  0  0  0  0  0  0  0  0  0  0  0
  -14.7852   13.1892  -28.6495 C   0  0  0  0  0  0  0  0  0  0  0  0
  -13.8345   12.1808  -28.1893 C   0  0  0  0  0  0  0  0  0  0  0  0
  -14.0877   11.0000  -28.5174 O   0  0  0  0  0  0  0  0  0  0  0  0
  -12.6856   12.4620  -27.4207 N   0  0  0  0  0  0  0  0  0  0  0  0
  -12.0074   11.6548  -26.4695 C   0  0  0  0  0  0  0  0  0  0  0  0
  -10.5429   11.6054  -26.4192 C   0  0  0  0  0  0  0  0  0  0  0  0
   -9.8132   11.1423  -27.6381 C   0  0  0  0  0  0  0  0  0  0  0  0
  -10.1401   10.6147  -25.2928 C   0  0  0  0  0  0  0  0  0  0  0  0
   -9.9679   12.9474  -25.9374 C   0  0  0  0  0  0  0  0  0  0  0  0
  -15.1607   14.2978  -27.9197 C   0  0  0  0  0  0  0  0  0  0  0  0
  -16.0403   15.1798  -28.4089 N   0  0  0  0  0  0  0  0  0  0  0  0
  1  2  1  0
  2  3  2  0
  3  4  1  0
  3  5  1  0
  5  6  2  0
  6  7  1  0
  7  8  2  0
  7  9  1  0
  9 10  1  0
 10 11  1  0
 11 12  1  0
  6 13  1  0
 13 14  2  0
 14 15  1  0
 15 16  2  0
 16 17  1  0
 17 18  2  0
 18 19  1  0
 19 20  2  0
 19 21  1  0
 21 22  1  0
 22 23  1  0
 23 24  1  0
 23 25  1  0
 23 26  1  0
 18 27  1  0
 27 28  2  0
 14  2  1  0
 28 15  1  0
 12 10  1  0
M  END
$$$$
