
     RDKit          3D

 24 26  0  0  0  0  0  0  0  0999 V2000
  -20.7190   41.1428  -19.5264 C   0  0  0  0  0  0  0  0  0  0  0  0
  -19.2512   40.8513  -19.3429 C   0  0  0  0  0  0  0  0  0  0  0  0
  -18.6565   40.4200  -20.5928 N   0  0  0  0  0  0  0  0  0  0  0  0
  -18.1771   41.2921  -21.5217 C   0  0  0  0  0  0  0  0  0  0  0  0
  -18.1864   42.7564  -21.3455 C   0  0  0  0  0  0  0  0  0  0  0  0
  -16.9450   43.2790  -21.1012 O   0  0  0  0  0  0  0  0  0  0  0  0
  -16.5242   44.5044  -20.7294 C   0  0  0  0  0  0  0  0  0  0  0  0
  -17.2001   45.6712  -20.9681 C   0  0  0  0  0  0  0  0  0  0  0  0
  -16.7063   46.9131  -20.5554 C   0  0  0  0  0  0  0  0  0  0  0  0
  -15.4981   46.9332  -19.8900 C   0  0  0  0  0  0  0  0  0  0  0  0
  -14.8120   45.7563  -19.6479 C   0  0  0  0  0  0  0  0  0  0  0  0
  -13.5874   45.7613  -18.9759 C   0  0  0  0  0  0  0  0  0  0  0  0
  -12.8927   44.5936  -18.7281 C   0  0  0  0  0  0  0  0  0  0  0  0
  -13.4280   43.3885  -19.1592 C   0  0  0  0  0  0  0  0  0  0  0  0
  -14.6066   43.3954  -19.8044 N   0  0  0  0  0  0  0  0  0  0  0  0
  -15.2917   44.5388  -20.0497 C   0  0  0  0  0  0  0  0  0  0  0  0
  -17.7284   40.5251  -22.5007 N   0  0  0  0  0  0  0  0  0  0  0  0
  -17.9045   39.2459  -22.2245 N   0  0  0  0  0  0  0  0  0  0  0  0
  -18.4907   39.1568  -21.0205 C   0  0  0  0  0  0  0  0  0  0  0  0
  -18.9642   37.6994  -20.1233 S   0  0  0  0  0  0  0  0  0  0  0  0
  -20.1654   36.8053  -21.1803 C   0  0  0  0  0  0  0  0  0  0  0  0
  -19.4498   36.4971  -22.4395 C   0  0  0  0  0  0  0  0  0  0  0  0
  -18.2370   36.1835  -22.4447 O   0  0  0  0  0  0  0  0  0  0  0  0
  -20.1154   36.5504  -23.6532 O   0  0  0  0  0  0  0  0  0  0  0  0
  1  2  1  0
  2  3  1  0
  3  4  1  0
  4  5  1  0
  5  6  1  0
  6  7  1  0
  7  8  2  0
  8  9  1  0
  9 10  2  0
 10 11  1  0
 11 12  2  0
 12 13  1  0
 13 14  2  0
 14 15  1  0
 15 16  2  0
  4 17  2  0
 17 18  1  0
 18 19  2  0
 19 20  1  0
 20 21  1  0
 21 22  1  0
 22 23  2  0
 22 24  1  0
 19  3  1  0
 16  7  1  0
 16 11  1  0
M  END
$$$$
