
     RDKit          3D

 20 23  0  0  0  0  0  0  0  0999 V2000
  -22.9316   37.3366  -25.5311 C   0  0  0  0  0  0  0  0  0  0  0  0
  -22.4951   37.8357  -24.1510 C   0  0  2  0  0  0  0  0  0  0  0  0
  -22.1963   39.2753  -24.2679 C   0  0  0  0  0  0  0  0  0  0  0  0
  -21.4642   39.8183  -23.0322 C   0  0  0  0  0  0  0  0  0  0  0  0
  -20.1688   39.0349  -23.0173 C   0  0  1  0  0  0  0  0  0  0  0  0
  -19.1234   39.6147  -22.1490 C   0  0  1  0  0  0  0  0  0  0  0  0
  -19.5770   40.8384  -21.3818 C   0  0  0  0  0  0  0  0  0  0  0  0
  -18.6466   38.6354  -21.1497 C   0  0  0  0  0  0  0  0  0  0  0  0
  -17.4238   38.5262  -20.8923 O   0  0  0  0  0  0  0  0  0  0  0  0
  -19.5913   37.8556  -20.5188 O   0  0  0  0  0  0  0  0  0  0  0  0
  -20.6262   37.2753  -21.2906 C   0  0  2  0  0  0  0  0  0  0  0  0
  -20.5793   35.9187  -21.0470 O   0  0  0  0  0  0  0  0  0  0  0  0
  -19.9971   35.1592  -22.0023 C   0  0  1  0  0  0  0  0  0  0  0  0
  -19.3786   33.9051  -21.3686 C   0  0  0  0  0  0  0  0  0  0  0  0
  -21.1051   34.6397  -22.9203 C   0  0  0  0  0  0  0  0  0  0  0  0
  -22.1290   35.7540  -22.9807 C   0  0  0  0  0  0  0  0  0  0  0  0
  -21.4272   36.9583  -23.6313 C   0  0  2  0  0  0  0  0  0  0  0  0
  -20.3977   37.5530  -22.7636 C   0  0  1  0  0  0  0  0  0  0  0  0
  -19.1289   36.9799  -23.0286 O   0  0  0  0  0  0  0  0  0  0  0  0
  -19.0483   35.7310  -22.7800 O   0  0  0  0  0  0  0  0  0  0  0  0
  2  1  1  6
  2  3  1  0
  3  4  1  0
  5  4  1  1
  5  6  1  0
  6  7  1  1
  6  8  1  0
  8  9  2  0
  8 10  1  0
 11 10  1  1
 11 12  1  0
 12 13  1  0
 13 14  1  1
 13 15  1  0
 15 16  1  0
 17 16  1  1
 17 18  1  0
 18 19  1  6
 19 20  1  0
 17  2  1  0
 18  5  1  0
 18 11  1  0
 20 13  1  0
M  END
$$$$
