
     RDKit          3D

 14 14  0  0  0  0  0  0  0  0999 V2000
  -20.9860   33.3747  -21.3476 O   0  0  0  0  0  0  0  0  0  0  0  0
  -20.2067   33.9443  -22.1358 N   0  0  0  0  0  4  0  0  0  0  0  0
  -19.4099   33.1397  -22.9122 O   0  0  0  0  0  1  0  0  0  0  0  0
  -20.1220   35.3565  -22.2496 C   0  0  0  0  0  0  0  0  0  0  0  0
  -21.2603   36.1282  -22.2002 C   0  0  0  0  0  0  0  0  0  0  0  0
  -21.1705   37.5194  -22.3141 C   0  0  0  0  0  0  0  0  0  0  0  0
  -22.3182   38.2990  -22.2646 O   0  0  0  0  0  0  0  0  0  0  0  0
  -19.9188   38.0802  -22.4752 C   0  0  0  0  0  0  0  0  0  0  0  0
  -19.8212   39.4496  -22.5878 O   0  0  0  0  0  0  0  0  0  0  0  0
  -18.7663   37.3355  -22.5280 C   0  0  0  0  0  0  0  0  0  0  0  0
  -17.5200   37.9936  -22.6941 N   0  0  0  0  0  4  0  0  0  0  0  0
  -16.4965   37.2769  -22.6297 O   0  0  0  0  0  0  0  0  0  0  0  0
  -17.4182   39.3439  -22.9147 O   0  0  0  0  0  1  0  0  0  0  0  0
  -18.8832   35.9608  -22.4128 C   0  0  0  0  0  0  0  0  0  0  0  0
  1  2  2  0
  2  3  1  0
  2  4  1  0
  4  5  2  0
  5  6  1  0
  6  7  1  0
  6  8  2  0
  8  9  1  0
  8 10  1  0
 10 11  1  0
 11 12  2  0
 11 13  1  0
 10 14  2  0
 14  4  1  0
M  CHG  4   2   1   3  -1  11   1  13  -1
M  END
$$$$
