
     RDKit          3D

 26 29  0  0  0  0  0  0  0  0999 V2000
  -21.7053   35.6368  -25.0965 C   0  0  0  0  0  0  0  0  0  0  0  0
  -21.7629   36.7162  -24.1599 N   0  0  0  0  0  0  0  0  0  0  0  0
  -22.9395   37.5378  -24.3733 C   0  0  0  0  0  0  0  0  0  0  0  0
  -20.4014   37.7788  -24.2404 S   0  0  0  0  0  6  0  0  0  0  0  0
  -20.7044   38.9799  -25.0868 O   0  0  0  0  0  0  0  0  0  0  0  0
  -19.2558   37.0052  -24.8106 O   0  0  0  0  0  0  0  0  0  0  0  0
  -19.9727   38.3149  -22.6237 C   0  0  0  0  0  0  0  0  0  0  0  0
  -20.3989   37.5967  -21.5208 C   0  0  0  0  0  0  0  0  0  0  0  0
  -20.0813   37.9809  -20.2380 C   0  0  0  0  0  0  0  0  0  0  0  0
  -19.3082   39.1227  -19.9963 C   0  0  0  0  0  0  0  0  0  0  0  0
  -18.8844   39.8365  -21.0877 C   0  0  0  0  0  0  0  0  0  0  0  0
  -19.2112   39.4398  -22.3867 C   0  0  0  0  0  0  0  0  0  0  0  0
  -18.0995   40.9715  -20.5597 C   0  0  0  0  0  0  0  0  0  0  0  0
  -17.5633   41.8864  -21.3192 C   0  0  0  0  0  0  0  0  0  0  0  0
  -16.6419   42.8674  -20.7675 C   0  0  0  0  0  0  0  0  0  0  0  0
  -16.7816   43.3529  -19.4698 C   0  0  0  0  0  0  0  0  0  0  0  0
  -15.7826   44.2834  -19.2923 C   0  0  0  0  0  0  0  0  0  0  0  0
  -15.0840   44.3270  -20.4729 C   0  0  0  0  0  0  0  0  0  0  0  0
  -15.6156   43.4522  -21.3860 N   0  0  0  0  0  0  0  0  0  0  0  0
  -13.9168   45.2348  -20.6280 C   0  0  0  0  0  0  0  0  0  0  0  0
  -13.8431   46.3238  -19.6319 C   0  0  0  0  0  0  0  0  0  0  0  0
  -15.0852   46.5127  -18.8321 C   0  0  0  0  0  0  0  0  0  0  0  0
  -15.3775   45.1651  -18.1497 C   0  0  0  0  0  0  0  0  0  0  0  0
  -18.0875   40.8856  -19.1093 C   0  0  0  0  0  0  0  0  0  0  0  0
  -17.5367   41.6548  -18.2748 O   0  0  0  0  0  0  0  0  0  0  0  0
  -18.8524   39.7173  -18.7888 N   0  0  0  0  0  0  0  0  0  0  0  0
  1  2  1  0
  2  3  1  0
  2  4  1  0
  4  5  2  0
  4  6  2  0
  4  7  1  0
  7  8  2  0
  8  9  1  0
  9 10  2  0
 10 11  1  0
 11 12  2  0
 11 13  1  0
 13 14  2  0
 14 15  1  0
 15 16  2  0
 16 17  1  0
 17 18  2  0
 18 19  1  0
 18 20  1  0
 20 21  1  0
 21 22  1  0
 22 23  1  0
 13 24  1  0
 24 25  2  0
 24 26  1  0
 12  7  1  0
 19 15  1  0
 26 10  1  0
 23 17  1  0
M  END
$$$$
