
     RDKit          3D

 26 28  0  0  0  0  0  0  0  0999 V2000
  -14.9598   46.4212  -19.7691 C   0  0  0  0  0  0  0  0  0  0  0  0
  -15.7465   45.2541  -19.2252 C   0  0  0  0  0  0  0  0  0  0  0  0
  -15.1614   44.8190  -17.9038 C   0  0  0  0  0  0  0  0  0  0  0  0
  -15.8024   44.1269  -20.2213 C   0  0  0  0  0  0  0  0  0  0  0  0
  -16.8707   43.1806  -19.8699 C   0  0  0  0  0  0  0  0  0  0  0  0
  -18.0723   43.5438  -19.9461 O   0  0  0  0  0  0  0  0  0  0  0  0
  -16.5943   41.8527  -19.4414 N   0  0  0  0  0  0  0  0  0  0  0  0
  -17.6165   40.8583  -19.5939 C   0  0  0  0  0  0  0  0  0  0  0  0
  -18.2544   40.1976  -18.6150 N   0  0  0  0  0  0  0  0  0  0  0  0
  -19.1326   39.3580  -19.1316 N   0  0  0  0  0  0  0  0  0  0  0  0
  -19.0990   39.4406  -20.4545 C   0  0  0  0  0  0  0  0  0  0  0  0
  -18.1512   40.3800  -20.7818 C   0  0  0  0  0  0  0  0  0  0  0  0
  -18.0571   40.5295  -22.2487 C   0  0  0  0  0  0  0  0  0  0  0  0
  -19.4227   40.0601  -22.6236 N   0  0  0  0  0  0  0  0  0  0  0  0
  -20.1877   40.6668  -23.6261 C   0  0  0  0  0  0  0  0  0  0  0  0
  -21.1319   39.9456  -24.1165 O   0  0  0  0  0  0  0  0  0  0  0  0
  -20.0643   42.0118  -24.1942 C   0  0  0  0  0  0  0  0  0  0  0  0
  -21.2950   42.8448  -23.7608 C   0  0  0  0  0  0  0  0  0  0  0  0
  -21.1421   44.1745  -24.4938 C   0  0  0  0  0  0  0  0  0  0  0  0
  -21.4633   44.0017  -25.9001 N   0  0  0  0  0  0  0  0  0  0  0  0
  -20.7354   44.9240  -26.7382 C   0  0  0  0  0  0  0  0  0  0  0  0
  -21.3080   42.6208  -26.3084 C   0  0  0  0  0  0  0  0  0  0  0  0
  -20.0655   41.9945  -25.7101 C   0  0  0  0  0  0  0  0  0  0  0  0
  -19.6407   38.9590  -21.7900 C   0  0  0  0  0  0  0  0  0  0  0  0
  -18.7009   37.8350  -22.2303 C   0  0  0  0  0  0  0  0  0  0  0  0
  -21.0092   38.4710  -21.5247 C   0  0  0  0  0  0  0  0  0  0  0  0
  1  2  1  0
  2  3  1  0
  2  4  1  0
  4  5  1  0
  5  6  2  0
  5  7  1  0
  7  8  1  0
  8  9  2  0
  9 10  1  0
 10 11  1  0
 11 12  2  0
 12 13  1  0
 13 14  1  0
 14 15  1  0
 15 16  2  0
 15 17  1  0
 17 18  1  0
 18 19  1  0
 19 20  1  0
 20 21  1  0
 20 22  1  0
 22 23  1  0
 14 24  1  0
 24 25  1  0
 24 26  1  0
 12  8  1  0
 23 17  1  0
 24 11  1  0
M  END
$$$$
