
     RDKit          3D

 28 31  0  0  0  0  0  0  0  0999 V2000
  -13.8386   17.0898  -41.5056 C   0  0  0  0  0  0  0  0  0  0  0  0
  -14.4714   17.6755  -40.3134 C   0  0  0  0  0  0  0  0  0  0  0  0
  -15.7826   17.9811  -40.1005 C   0  0  0  0  0  0  0  0  0  0  0  0
  -16.9672   17.8192  -40.9716 C   0  0  0  0  0  0  0  0  0  0  0  0
  -18.1444   18.4231  -40.5336 N   0  0  0  0  0  0  0  0  0  0  0  0
  -19.0361   17.5631  -39.6876 C   0  0  0  0  0  0  0  0  0  0  0  0
  -18.5784   19.7125  -40.7609 C   0  0  0  0  0  0  0  0  0  0  0  0
  -17.7379   20.4474  -41.4542 O   0  0  0  0  0  0  0  0  0  0  0  0
  -19.7725   20.4139  -40.3889 C   0  0  0  0  0  0  0  0  0  0  0  0
  -20.0374   21.6672  -40.5886 C   0  0  0  0  0  0  0  0  0  0  0  0
  -21.2940   22.2583  -40.1026 C   0  0  0  0  0  0  0  0  0  0  0  0
  -21.6161   23.4898  -40.5532 C   0  0  0  0  0  0  0  0  0  0  0  0
  -22.8020   24.1056  -40.1246 N   0  0  0  0  0  0  0  0  0  0  0  0
  -23.6967   23.4837  -39.2214 C   0  0  0  0  0  0  0  0  0  0  0  0
  -24.7831   24.0467  -38.8241 N   0  0  0  0  0  0  0  0  0  0  0  0
  -25.6556   23.3954  -37.9183 C   0  0  0  0  0  0  0  0  0  0  0  0
  -26.8800   23.7454  -37.8541 O   0  0  0  0  0  0  0  0  0  0  0  0
  -25.1146   22.3102  -37.0576 C   0  0  0  0  0  0  0  0  0  0  0  0
  -24.1777   21.3994  -37.8030 C   0  0  0  0  0  0  0  0  0  0  0  0
  -23.3403   22.1614  -38.7438 C   0  0  0  0  0  0  0  0  0  0  0  0
  -22.1959   21.6163  -39.1844 C   0  0  0  0  0  0  0  0  0  0  0  0
  -15.8541   18.4996  -38.8707 O   0  0  0  0  0  0  0  0  0  0  0  0
  -14.6868   18.5388  -38.3036 C   0  0  0  0  0  0  0  0  0  0  0  0
  -14.2292   18.9736  -37.0626 C   0  0  0  0  0  0  0  0  0  0  0  0
  -12.9043   18.8930  -36.7221 C   0  0  0  0  0  0  0  0  0  0  0  0
  -11.9648   18.3751  -37.5986 C   0  0  0  0  0  0  0  0  0  0  0  0
  -12.4104   17.9424  -38.8297 C   0  0  0  0  0  0  0  0  0  0  0  0
  -13.7452   18.0290  -39.1605 C   0  0  0  0  0  0  0  0  0  0  0  0
  1  2  1  0
  2  3  2  0
  3  4  1  0
  4  5  1  0
  5  6  1  0
  5  7  1  0
  7  8  2  0
  7  9  1  0
  9 10  2  0
 10 11  1  0
 11 12  2  0
 12 13  1  0
 13 14  1  0
 14 15  2  0
 15 16  1  0
 16 17  2  0
 16 18  1  0
 18 19  1  0
 19 20  1  0
 20 21  2  0
  3 22  1  0
 22 23  1  0
 23 24  2  0
 24 25  1  0
 25 26  2  0
 26 27  1  0
 27 28  2  0
 28  2  1  0
 21 11  1  0
 28 23  1  0
 20 14  1  0
M  END
$$$$
