
     RDKit          3D

 23 24  0  0  0  0  0  0  0  0999 V2000
   -9.1934   16.8014  -41.4115 C   0  0  0  0  0  0  0  0  0  0  0  0
   -9.5406   16.9980  -39.9548 C   0  0  0  0  0  0  0  0  0  0  0  0
  -10.9685   17.4920  -39.8799 C   0  0  0  0  0  0  0  0  0  0  0  0
  -11.4086   17.7856  -38.4836 C   0  0  0  0  0  0  0  0  0  0  0  0
  -12.8068   18.2986  -38.3831 C   0  0  0  0  0  0  0  0  0  0  0  0
  -13.8232   17.2781  -37.9665 C   0  0  0  0  0  0  0  0  0  0  0  0
  -15.2311   17.8337  -37.9119 C   0  0  0  0  0  0  0  0  0  0  0  0
  -15.8879   17.5251  -39.2274 C   0  0  0  0  0  0  0  0  0  0  0  0
  -16.8409   18.5638  -39.6782 C   0  0  0  0  0  0  0  0  0  0  0  0
  -16.4010   19.4695  -40.6313 C   0  0  0  0  0  0  0  0  0  0  0  0
  -17.2384   20.4617  -41.0967 C   0  0  0  0  0  0  0  0  0  0  0  0
  -18.5473   20.5909  -40.6311 C   0  0  0  0  0  0  0  0  0  0  0  0
  -19.4328   21.6348  -41.1191 C   0  0  0  0  0  0  0  0  0  0  0  0
  -19.7211   21.7760  -42.4551 C   0  0  0  0  0  0  0  0  0  0  0  0
  -20.5739   22.7797  -42.9184 C   0  0  0  0  0  0  0  0  0  0  0  0
  -21.1534   23.6629  -42.0364 C   0  0  0  0  0  0  0  0  0  0  0  0
  -22.0486   24.7179  -42.5080 C   0  0  0  0  0  0  0  0  0  0  0  0
  -21.8836   25.2359  -43.6306 O   0  0  0  0  0  0  0  0  0  0  0  0
  -23.0927   25.1428  -41.6899 O   0  0  0  0  0  0  0  0  0  0  0  0
  -20.8667   23.5247  -40.6956 C   0  0  0  0  0  0  0  0  0  0  0  0
  -20.0201   22.5260  -40.2492 C   0  0  0  0  0  0  0  0  0  0  0  0
  -18.9509   19.6728  -39.6836 C   0  0  0  0  0  0  0  0  0  0  0  0
  -18.1208   18.6781  -39.2129 C   0  0  0  0  0  0  0  0  0  0  0  0
  1  2  1  0
  2  3  1  0
  3  4  1  0
  4  5  1  0
  5  6  1  0
  6  7  1  0
  7  8  1  0
  8  9  1  0
  9 10  2  0
 10 11  1  0
 11 12  2  0
 12 13  1  0
 13 14  2  0
 14 15  1  0
 15 16  2  0
 16 17  1  0
 17 18  2  0
 17 19  1  0
 16 20  1  0
 20 21  2  0
 12 22  1  0
 22 23  2  0
 23  9  1  0
 21 13  1  0
M  END
$$$$
