
     RDKit          3D

 15 14  0  0  0  0  0  0  0  0999 V2000
  -15.9971   15.5456  -33.5251 Cl  0  0  0  0  0  0  0  0  0  0  0  0
  -19.8546   16.9606  -34.0484 N   0  0  0  0  0  0  0  0  0  0  0  0
  -19.1063   16.6960  -35.2768 C   0  0  0  0  0  0  0  0  0  0  0  0
  -17.7471   17.2959  -35.2091 C   0  0  0  0  0  0  0  0  0  0  0  0
  -17.3683   18.2085  -36.0982 C   0  0  0  0  0  0  0  0  0  0  0  0
  -16.1489   18.7745  -36.0713 F   0  0  0  0  0  0  0  0  0  0  0  0
  -16.7628   16.9108  -34.1611 C   0  0  0  0  0  0  0  0  0  0  0  0
  -16.4809   15.4416  -34.2743 C   0  0  0  0  0  0  0  0  0  0  0  0
  -15.5011   14.9977  -33.2495 C   0  0  0  0  0  0  0  0  0  0  0  0
  -14.1391   15.0025  -33.4811 C   0  0  0  0  0  0  0  0  0  0  0  0
  -13.2169   14.5963  -32.5474 C   0  0  0  0  0  0  0  0  0  0  0  0
  -13.6320   14.1582  -31.3142 C   0  0  0  0  0  0  0  0  0  0  0  0
  -12.7664   13.7448  -30.3523 F   0  0  0  0  0  0  0  0  0  0  0  0
  -14.9809   14.1416  -31.0534 C   0  0  0  0  0  0  0  0  0  0  0  0
  -15.9001   14.5513  -31.9968 C   0  0  0  0  0  0  0  0  0  0  0  0
  2  3  1  0
  3  4  1  0
  4  5  2  0
  5  6  1  0
  4  7  1  0
  7  8  1  0
  8  9  1  0
  9 10  2  0
 10 11  1  0
 11 12  2  0
 12 13  1  0
 12 14  1  0
 14 15  2  0
 15  9  1  0
M  END
$$$$
