
     RDKit          3D

 17 18  0  0  0  0  0  0  0  0999 V2000
  -18.2120   42.6931  -18.6864 C   0  0  0  0  0  0  0  0  0  0  0  0
  -17.4555   43.4433  -19.7832 C   0  0  0  0  0  0  0  0  0  0  0  0
  -18.0719   44.8170  -19.9331 C   0  0  0  0  0  0  0  0  0  0  0  0
  -16.0164   43.6008  -19.3876 C   0  0  0  0  0  0  0  0  0  0  0  0
  -17.6067   42.7432  -21.0848 C   0  0  0  0  0  0  0  0  0  0  0  0
  -17.1667   43.3338  -22.1046 O   0  0  0  0  0  0  0  0  0  0  0  0
  -18.2076   41.4780  -21.2161 N   0  0  0  0  0  0  0  0  0  0  0  0
  -19.0448   40.8541  -20.3094 N   0  0  0  0  0  0  0  0  0  0  0  0
  -19.0089   39.5718  -20.4586 C   0  0  0  0  0  0  0  0  0  0  0  0
  -18.0549   39.2527  -21.5771 C   0  0  0  0  0  0  0  0  0  0  0  0
  -18.0699   40.5437  -22.3577 C   0  0  1  0  0  0  0  0  0  0  0  0
  -19.2497   40.5995  -23.2170 C   0  0  0  0  0  0  0  0  0  0  0  0
  -19.2148   40.2209  -24.5548 C   0  0  0  0  0  0  0  0  0  0  0  0
  -20.3415   40.2612  -25.3353 C   0  0  0  0  0  0  0  0  0  0  0  0
  -21.5479   40.6741  -24.8369 C   0  0  0  0  0  0  0  0  0  0  0  0
  -21.6163   41.0537  -23.5217 C   0  0  0  0  0  0  0  0  0  0  0  0
  -20.4654   41.0077  -22.7408 C   0  0  0  0  0  0  0  0  0  0  0  0
  1  2  1  0
  2  3  1  0
  2  4  1  0
  2  5  1  0
  5  6  2  0
  5  7  1  0
  7  8  1  0
  8  9  2  0
  9 10  1  0
 10 11  1  0
 11 12  1  6
 12 13  2  0
 13 14  1  0
 14 15  2  0
 15 16  1  0
 16 17  2  0
 11  7  1  0
 17 12  1  0
M  END
$$$$
