
     RDKit          3D

 12 13  0  0  0  0  0  0  0  0999 V2000
  -19.6547   14.8854  -31.9956 S   0  0  0  0  0  0  0  0  0  0  0  0
  -18.6140   14.4877  -30.8078 C   0  0  0  0  0  0  0  0  0  0  0  0
  -18.9199   14.3628  -29.4967 N   0  0  0  0  0  0  0  0  0  0  0  0
  -17.8070   14.0310  -28.8681 N   0  0  0  0  0  0  0  0  0  0  0  0
  -16.8133   13.9481  -29.7709 C   0  0  0  0  0  0  0  0  0  0  0  0
  -15.4155   13.6089  -29.5132 C   0  0  0  0  0  0  0  0  0  0  0  0
  -14.9870   13.3950  -28.2201 C   0  0  0  0  0  0  0  0  0  0  0  0
  -13.6656   13.0722  -27.9528 C   0  0  0  0  0  0  0  0  0  0  0  0
  -12.7325   12.9524  -28.9597 C   0  0  0  0  0  0  0  0  0  0  0  0
  -13.1776   13.1707  -30.2604 C   0  0  0  0  0  0  0  0  0  0  0  0
  -14.4951   13.4931  -30.5324 C   0  0  0  0  0  0  0  0  0  0  0  0
  -17.3335   14.2277  -30.9198 O   0  0  0  0  0  0  0  0  0  0  0  0
  1  2  2  0
  2  3  1  0
  3  4  1  0
  4  5  2  0
  5  6  1  0
  6  7  2  0
  7  8  1  0
  8  9  2  0
  9 10  1  0
 10 11  2  0
  5 12  1  0
 12  2  1  0
 11  6  1  0
M  END
$$$$
