
     RDKit          3D

 29 32  0  0  0  0  0  0  0  0999 V2000
  -16.1039   12.3766  -28.7301 F   0  0  0  0  0  0  0  0  0  0  0  0
  -16.7678   13.5603  -28.4778 C   0  0  0  0  0  0  0  0  0  0  0  0
  -18.1316   13.4121  -28.5810 F   0  0  0  0  0  0  0  0  0  0  0  0
  -16.4142   13.9810  -27.1982 F   0  0  0  0  0  0  0  0  0  0  0  0
  -16.3502   14.6263  -29.4213 C   0  0  0  0  0  0  0  0  0  0  0  0
  -17.3261   15.2809  -30.1343 C   0  0  0  0  0  0  0  0  0  0  0  0
  -17.0119   16.2682  -31.0151 C   0  0  0  0  0  0  0  0  0  0  0  0
  -15.6725   16.6131  -31.1891 C   0  0  0  0  0  0  0  0  0  0  0  0
  -15.2909   17.6943  -32.1467 C   0  0  0  0  0  0  0  0  0  0  0  0
  -14.9938   17.1228  -33.4599 N   0  0  0  0  0  0  0  0  0  0  0  0
  -15.7873   17.5392  -34.5747 C   0  0  0  0  0  0  0  0  0  0  0  0
  -16.0453   16.6390  -35.5952 C   0  0  0  0  0  0  0  0  0  0  0  0
  -16.8217   17.0385  -36.6894 C   0  0  0  0  0  0  0  0  0  0  0  0
  -17.3354   18.3033  -36.7766 C   0  0  0  0  0  0  0  0  0  0  0  0
  -18.1539   18.6888  -37.9296 C   0  0  0  0  0  0  0  0  0  0  0  0
  -19.6015   18.6918  -37.6666 C   0  0  0  0  0  0  0  0  0  0  0  0
  -20.1987   17.9414  -36.6558 C   0  0  0  0  0  0  0  0  0  0  0  0
  -21.5180   18.1751  -36.7129 N   0  0  0  0  0  0  0  0  0  0  0  0
  -21.8017   19.0343  -37.7042 C   0  0  0  0  0  0  0  0  0  0  0  0
  -22.9749   19.5462  -38.1211 N   0  0  0  0  0  0  0  0  0  0  0  0
  -23.0315   20.4174  -39.1633 C   0  0  0  0  0  0  0  0  0  0  0  0
  -21.8537   20.7653  -39.7853 C   0  0  0  0  0  0  0  0  0  0  0  0
  -21.9305   21.8881  -41.1275 Cl  0  0  0  0  0  0  0  0  0  0  0  0
  -20.6244   20.2546  -39.3799 C   0  0  0  0  0  0  0  0  0  0  0  0
  -20.6132   19.3685  -38.3121 C   0  0  0  0  0  0  0  0  0  0  0  0
  -17.0520   19.1642  -35.7377 C   0  0  0  0  0  0  0  0  0  0  0  0
  -16.2981   18.7792  -34.6737 N   0  0  0  0  0  0  0  0  0  0  0  0
  -14.7065   15.9487  -30.4684 C   0  0  0  0  0  0  0  0  0  0  0  0
  -15.0762   14.9809  -29.6115 N   0  0  0  0  0  0  0  0  0  0  0  0
  1  2  1  0
  2  3  1  0
  2  4  1  0
  2  5  1  0
  5  6  2  0
  6  7  1  0
  7  8  2  0
  8  9  1  0
  9 10  1  0
 10 11  1  0
 11 12  2  0
 12 13  1  0
 13 14  2  0
 14 15  1  0
 15 16  1  0
 16 17  2  0
 17 18  1  0
 18 19  1  0
 19 20  2  0
 20 21  1  0
 21 22  2  0
 22 23  1  0
 22 24  1  0
 24 25  2  0
 14 26  1  0
 26 27  2  0
  8 28  1  0
 28 29  2  0
 29  5  1  0
 27 11  1  0
 25 16  1  0
 25 19  1  0
M  END
$$$$
