
     RDKit          3D

 32 34  0  0  0  0  0  0  0  0999 V2000
  -25.6534   18.0140  -33.7205 N   0  0  0  0  0  0  0  0  0  0  0  0
  -24.5841   19.0198  -33.5776 C   0  0  0  0  0  0  0  0  0  0  0  0
  -23.3340   18.3554  -34.0589 C   0  0  0  0  0  0  0  0  0  0  0  0
  -22.9655   17.1466  -33.2086 C   0  0  0  0  0  0  0  0  0  0  0  0
  -22.0301   16.3290  -34.0464 C   0  0  0  0  0  0  0  0  0  0  0  0
  -21.1889   17.1058  -34.9981 C   0  0  0  0  0  0  0  0  0  0  0  0
  -19.9135   16.2894  -35.2177 C   0  0  0  0  0  0  0  0  0  0  0  0
  -19.2401   16.1694  -33.9369 N   0  0  0  0  0  0  0  0  0  0  0  0
  -17.9906   16.7449  -33.6218 C   0  0  0  0  0  0  0  0  0  0  0  0
  -17.3709   17.5720  -34.5210 N   0  0  0  0  0  0  0  0  0  0  0  0
  -16.1714   18.1183  -34.2662 C   0  0  0  0  0  0  0  0  0  0  0  0
  -15.5860   18.9634  -35.2450 N   0  0  0  0  0  0  0  0  0  0  0  0
  -16.2503   19.3000  -36.4737 C   0  0  0  0  0  0  0  0  0  0  0  0
  -15.5816   18.6495  -37.6189 C   0  0  0  0  0  0  0  0  0  0  0  0
  -14.2867   18.1511  -37.4340 C   0  0  0  0  0  0  0  0  0  0  0  0
  -13.5718   17.5299  -38.4282 C   0  0  0  0  0  0  0  0  0  0  0  0
  -14.1838   17.4025  -39.6644 C   0  0  0  0  0  0  0  0  0  0  0  0
  -15.4520   17.8865  -39.8543 C   0  0  0  0  0  0  0  0  0  0  0  0
  -16.1852   18.5227  -38.8401 C   0  0  0  0  0  0  0  0  0  0  0  0
  -17.4203   18.9641  -39.1212 O   0  0  0  0  0  0  0  0  0  0  0  0
  -18.4040   19.5708  -38.3683 C   0  0  0  0  0  0  0  0  0  0  0  0
  -19.5605   19.8864  -39.0240 F   0  0  0  0  0  0  0  0  0  0  0  0
  -18.7351   18.7958  -37.2430 F   0  0  0  0  0  0  0  0  0  0  0  0
  -17.9354   20.7716  -37.8010 F   0  0  0  0  0  0  0  0  0  0  0  0
  -15.5298   17.8629  -33.0921 N   0  0  0  0  0  0  0  0  0  0  0  0
  -16.0793   17.0693  -32.1797 C   0  0  0  0  0  0  0  0  0  0  0  0
  -17.3356   16.4966  -32.4479 C   0  0  0  0  0  0  0  0  0  0  0  0
  -17.8487   15.6755  -31.4429 N   0  0  0  0  0  4  0  0  0  0  0  0
  -19.1061   15.5485  -31.3484 O   0  0  0  0  0  0  0  0  0  0  0  0
  -17.1316   14.9797  -30.5252 O   0  0  0  0  0  1  0  0  0  0  0  0
  -20.9723   18.5245  -34.6758 C   0  0  0  0  0  0  0  0  0  0  0  0
  -22.1124   19.2418  -34.0524 C   0  0  0  0  0  0  0  0  0  0  0  0
  1  2  1  0
  2  3  1  0
  3  4  1  0
  4  5  1  0
  5  6  1  0
  6  7  1  0
  7  8  1  0
  8  9  1  0
  9 10  2  0
 10 11  1  0
 11 12  1  0
 12 13  1  0
 13 14  1  0
 14 15  2  0
 15 16  1  0
 16 17  2  0
 17 18  1  0
 18 19  2  0
 19 20  1  0
 20 21  1  0
 21 22  1  0
 21 23  1  0
 21 24  1  0
 11 25  2  0
 25 26  1  0
 26 27  2  0
 27 28  1  0
 28 29  2  0
 28 30  1  0
  6 31  1  0
 31 32  1  0
 32  3  1  0
 27  9  1  0
 19 14  1  0
M  CHG  2  28   1  30  -1
M  END
$$$$
