
     RDKit          3D

 22 22  0  0  0  0  0  0  0  0999 V2000
  -20.2436   42.3299  -24.0655 C   0  0  0  0  0  0  0  0  0  0  0  0
  -20.5863   41.0518  -23.4287 C   0  0  0  0  0  0  0  0  0  0  0  0
  -21.8930   40.6098  -23.4092 C   0  0  0  0  0  0  0  0  0  0  0  0
  -22.2167   39.4052  -22.8104 C   0  0  0  0  0  0  0  0  0  0  0  0
  -21.2294   38.6334  -22.2265 C   0  0  0  0  0  0  0  0  0  0  0  0
  -21.5629   37.4610  -21.6629 N   0  0  0  0  0  0  0  0  0  0  0  0
  -20.6358   36.6725  -21.0982 C   0  0  0  0  0  0  0  0  0  0  0  0
  -21.0010   35.4249  -20.4995 N   0  0  0  0  0  0  0  0  0  0  0  0
  -19.3703   37.1014  -21.1207 N   0  0  0  0  0  0  0  0  0  0  0  0
  -18.9892   38.2722  -21.6755 C   0  0  0  0  0  0  0  0  0  0  0  0
  -17.7836   38.6227  -21.6707 O   0  0  0  0  0  0  0  0  0  0  0  0
  -19.9208   39.0878  -22.2531 C   0  0  0  0  0  0  0  0  0  0  0  0
  -19.5797   40.2820  -22.8412 C   0  0  0  0  0  0  0  0  0  0  0  0
  -17.8861   40.8153  -22.8484 S   0  0  0  0  0  0  0  0  0  0  0  0
  -17.4775   41.8947  -21.5000 C   0  0  0  0  0  0  0  0  0  0  0  0
  -16.9884   41.5198  -20.2854 C   0  0  0  0  0  0  0  0  0  0  0  0
  -16.7021   42.4524  -19.2848 C   0  0  0  0  0  0  0  0  0  0  0  0
  -16.9181   43.7333  -19.5410 N   0  0  0  0  0  0  0  0  0  0  0  0
  -17.4031   44.1954  -20.7234 C   0  0  0  0  0  0  0  0  0  0  0  0
  -17.6784   43.2532  -21.6968 C   0  0  0  0  0  0  0  0  0  0  0  0
  -19.1046   40.8292  -21.8335 Cl  0  0  0  0  0  0  0  0  0  0  0  0
  -19.1050   40.8286  -21.8336 Cl  0  0  0  0  0  0  0  0  0  0  0  0
  1  2  1  0
  2  3  2  0
  3  4  1  0
  4  5  2  0
  5  6  1  0
  6  7  1  0
  7  8  1  0
  7  9  2  0
  9 10  1  0
 10 11  2  0
 10 12  1  0
 12 13  2  0
 13 14  1  0
 14 15  1  0
 15 16  2  0
 16 17  1  0
 17 18  2  0
 18 19  1  0
 19 20  2  0
 13  2  1  0
 20 15  1  0
 12  5  1  0
M  END
$$$$
