
     RDKit          3D

 21 23  0  0  0  0  0  0  0  0999 V2000
  -28.0270   18.0202  -21.9213 O   0  0  0  0  0  0  0  0  0  0  0  0
  -28.0451   16.8574  -22.3713 C   0  0  0  0  0  0  0  0  0  0  0  0
  -26.9409   16.4126  -23.1353 C   0  0  0  0  0  0  0  0  0  0  0  0
  -25.8948   17.2720  -23.3527 O   0  0  0  0  0  0  0  0  0  0  0  0
  -26.9883   15.1457  -23.6108 C   0  0  0  0  0  0  0  0  0  0  0  0
  -25.9239   14.5536  -24.4117 C   0  0  0  0  0  0  0  0  0  0  0  0
  -24.6424   14.4607  -23.8731 C   0  0  0  0  0  0  0  0  0  0  0  0
  -23.6404   13.9046  -24.6239 C   0  0  0  0  0  0  0  0  0  0  0  0
  -23.8601   13.4339  -25.8963 C   0  0  0  0  0  0  0  0  0  0  0  0
  -22.8183   12.8763  -26.6271 O   0  0  0  0  0  0  0  0  0  0  0  0
  -25.1078   13.5264  -26.4159 C   0  0  0  0  0  0  0  0  0  0  0  0
  -26.1395   14.0875  -25.6705 C   0  0  0  0  0  0  0  0  0  0  0  0
  -28.0590   14.3646  -23.3493 O   0  0  0  0  0  0  0  0  0  0  0  0
  -29.0869   14.7315  -22.6568 C   0  0  0  0  0  0  0  0  0  0  0  0
  -30.1601   13.8606  -22.4294 C   0  0  0  0  0  0  0  0  0  0  0  0
  -31.2585   14.2432  -21.6932 C   0  0  0  0  0  0  0  0  0  0  0  0
  -32.3173   13.3604  -21.4782 O   0  0  0  0  0  0  0  0  0  0  0  0
  -31.2659   15.5273  -21.1817 C   0  0  0  0  0  0  0  0  0  0  0  0
  -30.2090   16.3864  -21.4050 C   0  0  0  0  0  0  0  0  0  0  0  0
  -30.2285   17.6736  -20.8858 O   0  0  0  0  0  0  0  0  0  0  0  0
  -29.1041   16.0093  -22.1425 C   0  0  0  0  0  0  0  0  0  0  0  0
  1  2  2  0
  2  3  1  0
  3  4  1  0
  3  5  2  0
  5  6  1  0
  6  7  2  0
  7  8  1  0
  8  9  2  0
  9 10  1  0
  9 11  1  0
 11 12  2  0
  5 13  1  0
 13 14  1  0
 14 15  2  0
 15 16  1  0
 16 17  1  0
 16 18  2  0
 18 19  1  0
 19 20  1  0
 19 21  2  0
 21  2  1  0
 12  6  1  0
 21 14  1  0
M  END
$$$$
