
     RDKit          3D

 26 29  0  0  0  0  0  0  0  0999 V2000
  -20.8729   45.6849  -24.2966 C   0  0  0  0  0  0  0  0  0  0  0  0
  -20.6698   44.4510  -23.6222 O   0  0  0  0  0  0  0  0  0  0  0  0
  -20.0885   44.4177  -22.3726 C   0  0  0  0  0  0  0  0  0  0  0  0
  -19.7329   45.6126  -21.7887 C   0  0  0  0  0  0  0  0  0  0  0  0
  -19.1505   45.6526  -20.5479 C   0  0  0  0  0  0  0  0  0  0  0  0
  -18.8117   46.8850  -20.0063 O   0  0  0  0  0  0  0  0  0  0  0  0
  -18.8038   48.0107  -20.8720 C   0  0  0  0  0  0  0  0  0  0  0  0
  -18.9262   44.4627  -19.8904 C   0  0  0  0  0  0  0  0  0  0  0  0
  -19.2612   43.2428  -20.4256 C   0  0  0  0  0  0  0  0  0  0  0  0
  -19.0238   41.9804  -19.7247 C   0  0  0  0  0  0  0  0  0  0  0  0
  -18.7234   41.8414  -18.4342 N   0  0  0  0  0  0  0  0  0  0  0  0
  -18.5797   40.5399  -18.1594 N   0  0  0  0  0  0  0  0  0  0  0  0
  -18.7945   39.8606  -19.2976 C   0  0  0  0  0  0  0  0  0  0  0  0
  -18.7455   38.4434  -19.4713 N   0  0  0  0  0  0  0  0  0  0  0  0
  -19.0308   37.8849  -20.7478 C   0  0  0  0  0  0  0  0  0  0  0  0
  -19.0535   36.8955  -21.3909 N   0  0  0  0  0  0  0  0  0  0  0  0
  -19.3912   36.6713  -22.6307 C   0  0  0  0  0  0  0  0  0  0  0  0
  -19.4058   35.4920  -23.3562 C   0  0  0  0  0  0  0  0  0  0  0  0
  -19.0355   34.2885  -22.8280 F   0  0  0  0  0  0  0  0  0  0  0  0
  -19.8018   35.4961  -24.6565 C   0  0  0  0  0  0  0  0  0  0  0  0
  -20.2094   36.6088  -25.3589 C   0  0  0  0  0  0  0  0  0  0  0  0
  -20.2146   37.8109  -24.6865 C   0  0  0  0  0  0  0  0  0  0  0  0
  -19.8046   37.8434  -23.3185 C   0  0  0  0  0  0  0  0  0  0  0  0
  -19.6543   39.1145  -22.0942 S   0  0  0  0  0  0  0  0  0  0  0  0
  -19.0593   40.7671  -20.2186 O   0  0  0  0  0  0  0  0  0  0  0  0
  -19.8491   43.2457  -21.6851 C   0  0  0  0  0  0  0  0  0  0  0  0
  1  2  1  0
  2  3  1  0
  3  4  2  0
  4  5  1  0
  5  6  1  0
  6  7  1  0
  5  8  2  0
  8  9  1  0
  9 10  1  0
 10 11  2  0
 11 12  1  0
 12 13  2  0
 13 14  1  0
 14 15  1  0
 15 16  2  0
 16 17  1  0
 17 18  2  0
 18 19  1  0
 18 20  1  0
 20 21  2  0
 21 22  1  0
 22 23  2  0
 23 24  1  0
 13 25  1  0
  9 26  2  0
 26  3  1  0
 25 10  1  0
 24 15  1  0
 23 17  1  0
M  END
$$$$
