
     RDKit          3D

 17 18  0  0  0  0  0  0  0  0999 V2000
  -13.9348   18.8902  -44.2681 O   0  0  0  0  0  0  0  0  0  0  0  0
  -14.4602   18.8488  -43.1017 C   0  0  0  0  0  0  0  0  0  0  0  0
  -15.6873   19.4343  -42.9475 O   0  0  0  0  0  0  0  0  0  0  0  0
  -13.6968   18.1754  -42.0392 C   0  0  0  0  0  0  0  0  0  0  0  0
  -14.3688   17.5828  -40.9712 C   0  0  0  0  0  0  0  0  0  0  0  0
  -13.6424   16.9634  -39.9835 C   0  0  0  0  0  0  0  0  0  0  0  0
  -12.2706   16.9165  -40.0289 C   0  0  0  0  0  0  0  0  0  0  0  0
  -11.6713   17.5036  -41.0828 N   0  0  0  0  0  0  0  0  0  0  0  0
  -12.3461   18.1138  -42.0591 C   0  0  0  0  0  0  0  0  0  0  0  0
  -11.6146   18.6780  -43.1297 N   0  0  0  0  0  0  0  0  0  0  0  0
  -10.2277   18.4507  -43.1734 C   0  0  0  0  0  0  0  0  0  0  0  0
   -9.4816   18.9738  -42.1101 C   0  0  0  0  0  0  0  0  0  0  0  0
   -8.1228   18.7591  -42.1140 C   0  0  0  0  0  0  0  0  0  0  0  0
   -7.4776   18.0604  -43.1087 C   0  0  0  0  0  0  0  0  0  0  0  0
   -5.7430   17.8191  -43.0514 Cl  0  0  0  0  0  0  0  0  0  0  0  0
   -8.2396   17.5556  -44.1463 C   0  0  0  0  0  0  0  0  0  0  0  0
   -9.6115   17.7506  -44.1788 C   0  0  0  0  0  0  0  0  0  0  0  0
  1  2  2  0
  2  3  1  0
  2  4  1  0
  4  5  2  0
  5  6  1  0
  6  7  2  0
  7  8  1  0
  8  9  2  0
  9 10  1  0
 10 11  1  0
 11 12  2  0
 12 13  1  0
 13 14  2  0
 14 15  1  0
 14 16  1  0
 16 17  2  0
  9  4  1  0
 17 11  1  0
M  END
$$$$
