
     RDKit          3D

 30 32  0  0  0  0  0  0  0  0999 V2000
  -18.7924   46.0991  -23.5182 C   0  0  0  0  0  0  0  0  0  0  0  0
  -18.8698   45.9772  -22.0091 C   0  0  0  0  0  0  0  0  0  0  0  0
  -18.7562   47.3340  -21.3822 C   0  0  0  0  0  0  0  0  0  0  0  0
  -20.2490   45.4156  -21.6519 C   0  0  2  0  0  0  0  0  0  0  0  0
  -20.3738   45.2778  -20.1713 C   0  0  0  0  0  0  0  0  0  0  0  0
  -21.7098   45.2578  -19.7797 O   0  0  0  0  0  0  0  0  0  0  0  0
  -20.4444   44.1713  -22.3196 N   0  0  0  0  0  0  0  0  0  0  0  0
  -19.7081   42.9865  -22.0423 C   0  0  0  0  0  0  0  0  0  0  0  0
  -18.5686   43.0274  -21.3307 N   0  0  0  0  0  0  0  0  0  0  0  0
  -17.8219   41.9312  -21.0358 C   0  0  0  0  0  0  0  0  0  0  0  0
  -16.6210   42.0477  -20.2783 N   0  0  0  0  0  0  0  0  0  0  0  0
  -16.1978   43.2481  -19.6849 C   0  0  0  0  0  0  0  0  0  0  0  0
  -16.5167   44.4401  -20.2861 C   0  0  0  0  0  0  0  0  0  0  0  0
  -16.0830   45.6189  -19.7205 C   0  0  0  0  0  0  0  0  0  0  0  0
  -15.3368   45.5944  -18.5625 C   0  0  0  0  0  0  0  0  0  0  0  0
  -14.8740   46.8524  -17.9661 C   0  0  0  0  0  0  0  0  0  0  0  0
  -14.1046   46.8106  -16.9898 O   0  0  0  0  0  0  0  0  0  0  0  0
  -15.3157   48.0675  -18.5151 O   0  0  0  0  0  0  0  0  0  0  0  0
  -15.0127   44.3923  -17.9524 C   0  0  0  0  0  0  0  0  0  0  0  0
  -14.0521   44.4225  -16.4742 Cl  0  0  0  0  0  0  0  0  0  0  0  0
  -15.4419   43.2168  -18.5106 C   0  0  0  0  0  0  0  0  0  0  0  0
  -18.2981   40.7264  -21.5141 C   0  0  0  0  0  0  0  0  0  0  0  0
  -17.8440   39.4624  -21.4240 N   0  0  0  0  0  0  0  0  0  0  0  0
  -18.7097   38.6326  -22.0863 C   0  0  0  0  0  0  0  0  0  0  0  0
  -19.7117   39.3615  -22.5970 N   0  0  0  0  0  0  0  0  0  0  0  0
  -20.8128   38.8238  -23.3603 C   0  0  0  0  0  0  0  0  0  0  0  0
  -20.7951   39.4079  -24.7465 C   0  0  0  0  0  0  0  0  0  0  0  0
  -22.1447   39.1751  -22.7040 C   0  0  0  0  0  0  0  0  0  0  0  0
  -19.4686   40.6439  -22.2522 C   0  0  0  0  0  0  0  0  0  0  0  0
  -20.1383   41.7824  -22.4929 N   0  0  0  0  0  0  0  0  0  0  0  0
  1  2  1  0
  2  3  1  0
  2  4  1  0
  4  5  1  1
  5  6  1  0
  4  7  1  0
  7  8  1  0
  8  9  2  0
  9 10  1  0
 10 11  1  0
 11 12  1  0
 12 13  2  0
 13 14  1  0
 14 15  2  0
 15 16  1  0
 16 17  2  0
 16 18  1  0
 15 19  1  0
 19 20  1  0
 19 21  2  0
 10 22  2  0
 22 23  1  0
 23 24  2  0
 24 25  1  0
 25 26  1  0
 26 27  1  0
 26 28  1  0
 25 29  1  0
 29 30  2  0
 30  8  1  0
 21 12  1  0
 29 22  1  0
M  END
$$$$
