
     RDKit          3D

 24 25  0  0  0  0  0  0  0  0999 V2000
  -26.1286   20.7651  -30.6850 C   0  0  0  0  0  0  0  0  0  0  0  0
  -24.9767   21.5170  -30.3514 O   0  0  0  0  0  0  0  0  0  0  0  0
  -23.7496   20.8716  -30.3832 C   0  0  0  0  0  0  0  0  0  0  0  0
  -23.6328   19.5194  -30.5691 C   0  0  0  0  0  0  0  0  0  0  0  0
  -22.4363   18.8456  -30.6063 C   0  0  0  0  0  0  0  0  0  0  0  0
  -22.4799   17.3916  -30.7801 C   0  0  0  0  0  0  0  0  0  0  0  0
  -23.7168   16.7395  -30.2373 C   0  0  0  0  0  0  0  0  0  0  0  0
  -22.2774   17.0314  -32.2216 C   0  0  0  0  0  0  0  0  0  0  0  0
  -21.2458   19.5910  -30.4440 C   0  0  0  0  0  0  0  0  0  0  0  0
  -20.1100   18.9320  -30.4860 O   0  0  0  0  0  0  0  0  0  0  0  0
  -18.7964   18.9738  -30.5378 C   0  0  0  0  0  0  0  0  0  0  0  0
  -17.9478   20.0597  -30.4202 C   0  0  0  0  0  0  0  0  0  0  0  0
  -16.6026   19.9045  -30.5030 N   0  0  0  0  0  0  0  0  0  0  0  0
  -16.0173   18.7352  -30.6970 C   0  0  0  0  0  0  0  0  0  0  0  0
  -14.6211   18.5438  -30.7873 N   0  0  0  0  0  0  0  0  0  0  0  0
  -16.8070   17.6612  -30.8155 N   0  0  0  0  0  0  0  0  0  0  0  0
  -18.1353   17.7369  -30.7450 C   0  0  0  0  0  0  0  0  0  0  0  0
  -18.8593   16.5317  -30.8905 N   0  0  0  0  0  0  0  0  0  0  0  0
  -21.3286   20.9691  -30.2522 C   0  0  0  0  0  0  0  0  0  0  0  0
  -22.5744   21.5598  -30.2285 C   0  0  0  0  0  0  0  0  0  0  0  0
  -22.6913   23.3059  -29.9859 S   0  0  0  0  0  6  0  0  0  0  0  0
  -23.5896   23.5758  -28.5550 N   0  0  0  0  0  0  0  0  0  0  0  0
  -23.2729   23.9892  -31.1738 O   0  0  0  0  0  0  0  0  0  0  0  0
  -21.2999   23.8475  -29.7614 O   0  0  0  0  0  0  0  0  0  0  0  0
  1  2  1  0
  2  3  1  0
  3  4  2  0
  4  5  1  0
  5  6  1  0
  6  7  1  0
  6  8  1  0
  5  9  2  0
  9 10  1  0
 10 11  1  0
 11 12  2  0
 12 13  1  0
 13 14  2  0
 14 15  1  0
 14 16  1  0
 16 17  2  0
 17 18  1  0
  9 19  1  0
 19 20  2  0
 20 21  1  0
 21 22  1  0
 21 23  2  0
 21 24  2  0
 20  3  1  0
 17 11  1  0
M  END
$$$$
