
     RDKit          3D

 24 24  0  0  0  0  0  0  0  0999 V2000
  -16.5475   45.4191  -21.2618 C   0  0  0  0  0  0  0  0  0  0  0  0
  -17.4552   44.2880  -20.8250 C   0  0  0  0  0  0  0  0  0  0  0  0
  -18.5270   44.9128  -19.9263 C   0  0  0  0  0  0  0  0  0  0  0  0
  -18.0926   43.7240  -22.0865 C   0  0  2  0  0  0  0  0  0  0  0  0
  -18.8553   44.7487  -22.7661 N   0  0  0  0  0  0  0  0  0  0  0  0
  -19.0419   42.6266  -21.6900 C   0  0  0  0  0  0  0  0  0  0  0  0
  -20.2709   42.7037  -21.9611 O   0  0  0  0  0  0  0  0  0  0  0  0
  -18.6097   41.4995  -21.0186 O   0  0  0  0  0  0  0  0  0  0  0  0
  -19.5389   40.4908  -20.6647 C   0  0  0  0  0  0  0  0  0  0  0  0
  -18.8696   39.3481  -19.9403 C   0  0  0  0  0  0  0  0  0  0  0  0
  -17.8978   38.7166  -20.6542 O   0  0  0  0  0  0  0  0  0  0  0  0
  -18.2731   38.1343  -21.8281 C   0  0  0  0  0  0  0  0  0  0  0  0
  -19.2756   37.1000  -21.6968 N   0  0  0  0  0  0  0  0  0  0  0  0
  -20.6118   37.1954  -21.7342 C   0  0  0  0  0  0  0  0  0  0  0  0
  -21.1780   35.9876  -21.5708 N   0  0  0  0  0  0  0  0  0  0  0  0
  -20.2108   35.0883  -21.4246 C   0  0  0  0  0  0  0  0  0  0  0  0
  -20.1874   33.7069  -21.2259 C   0  0  0  0  0  0  0  0  0  0  0  0
  -21.2731   33.0785  -21.1550 O   0  0  0  0  0  0  0  0  0  0  0  0
  -18.9987   33.0962  -21.1172 N   0  0  0  0  0  0  0  0  0  0  0  0
  -17.8110   33.7521  -21.1903 C   0  0  0  0  0  0  0  0  0  0  0  0
  -16.5744   33.0729  -21.0709 N   0  0  0  0  0  0  0  0  0  0  0  0
  -17.8732   35.0837  -21.3825 N   0  0  0  0  0  0  0  0  0  0  0  0
  -19.0179   35.7767  -21.5023 C   0  0  0  0  0  0  0  0  0  0  0  0
  -18.6171   39.0800  -21.2746 Cl  0  0  0  0  0  0  0  0  0  0  0  0
  1  2  1  0
  2  3  1  0
  2  4  1  0
  4  5  1  1
  4  6  1  0
  6  7  2  0
  6  8  1  0
  8  9  1  0
  9 10  1  0
 10 11  1  0
 11 12  1  0
 12 13  1  0
 13 14  1  0
 14 15  2  0
 15 16  1  0
 16 17  1  0
 17 18  2  0
 17 19  1  0
 19 20  1  0
 20 21  1  0
 20 22  2  0
 22 23  1  0
 23 13  1  0
 23 16  2  0
M  END
$$$$
