
     RDKit          3D

 28 31  0  0  0  0  0  0  0  0999 V2000
  -20.4469   27.1953  -41.9938 C   0  0  0  0  0  0  0  0  0  0  0  0
  -21.1730   25.9973  -41.8831 O   0  0  0  0  0  0  0  0  0  0  0  0
  -20.4986   24.8125  -41.5645 C   0  0  0  0  0  0  0  0  0  0  0  0
  -19.3002   24.5438  -42.1897 C   0  0  0  0  0  0  0  0  0  0  0  0
  -18.5660   23.4106  -41.9464 C   0  0  0  0  0  0  0  0  0  0  0  0
  -17.3350   23.1027  -42.5758 N   0  0  0  0  0  0  0  0  0  0  0  0
  -17.2452   22.6901  -44.2253 S   0  0  0  0  0  6  0  0  0  0  0  0
  -18.0789   23.8059  -45.3008 C   0  0  0  0  0  0  0  0  0  0  0  0
  -17.7816   21.2816  -44.4688 O   0  0  0  0  0  0  0  0  0  0  0  0
  -15.7669   22.6357  -44.6047 O   0  0  0  0  0  0  0  0  0  0  0  0
  -19.1102   22.5194  -41.0077 C   0  0  0  0  0  0  0  0  0  0  0  0
  -20.2976   22.7898  -40.3907 C   0  0  0  0  0  0  0  0  0  0  0  0
  -21.0470   23.9432  -40.6364 C   0  0  0  0  0  0  0  0  0  0  0  0
  -22.2667   24.1386  -39.9634 N   0  0  0  0  0  0  0  0  0  0  0  0
  -22.7730   23.4698  -38.8306 C   0  0  0  0  0  0  0  0  0  0  0  0
  -23.4315   22.2611  -38.9149 C   0  0  0  0  0  0  0  0  0  0  0  0
  -23.6493   21.6135  -40.1118 C   0  0  0  0  0  0  0  0  0  0  0  0
  -24.3031   20.4035  -40.1943 C   0  0  0  0  0  0  0  0  0  0  0  0
  -24.7731   19.7847  -39.0503 C   0  0  0  0  0  0  0  0  0  0  0  0
  -24.5604   20.4232  -37.8479 C   0  0  0  0  0  0  0  0  0  0  0  0
  -23.9008   21.6432  -37.7691 C   0  0  0  0  0  0  0  0  0  0  0  0
  -23.6979   22.2460  -36.5879 N   0  0  0  0  0  0  0  0  0  0  0  0
  -23.0494   23.4351  -36.4928 C   0  0  0  0  0  0  0  0  0  0  0  0
  -22.8509   24.0092  -35.2571 C   0  0  0  0  0  0  0  0  0  0  0  0
  -22.1876   25.1998  -35.1354 C   0  0  0  0  0  0  0  0  0  0  0  0
  -21.6990   25.8562  -36.2618 C   0  0  0  0  0  0  0  0  0  0  0  0
  -21.8886   25.2998  -37.4921 C   0  0  0  0  0  0  0  0  0  0  0  0
  -22.5586   24.1024  -37.5919 C   0  0  0  0  0  0  0  0  0  0  0  0
  1  2  1  0
  2  3  1  0
  3  4  2  0
  4  5  1  0
  5  6  1  0
  6  7  1  0
  7  8  1  0
  7  9  2  0
  7 10  2  0
  5 11  2  0
 11 12  1  0
 12 13  2  0
 13 14  1  0
 14 15  1  0
 15 16  1  0
 16 17  2  0
 17 18  1  0
 18 19  2  0
 19 20  1  0
 20 21  2  0
 21 22  1  0
 22 23  2  0
 23 24  1  0
 24 25  2  0
 25 26  1  0
 26 27  2  0
 27 28  1  0
 13  3  1  0
 28 15  2  0
 21 16  1  0
 28 23  1  0
M  END
$$$$
