
     RDKit          3D

 26 30  0  0  0  0  0  0  0  0999 V2000
  -13.9956   43.8914  -20.4414 C   0  0  0  0  0  0  0  0  0  0  0  0
  -15.0633   44.1451  -19.3816 C   0  0  2  0  0  0  0  0  0  0  0  0
  -15.4228   42.9188  -18.6487 C   0  0  0  0  0  0  0  0  0  0  0  0
  -16.4127   42.0656  -19.3975 C   0  0  0  0  0  0  0  0  0  0  0  0
  -17.5789   42.8043  -19.9902 C   0  0  1  0  0  0  0  0  0  0  0  0
  -16.9784   43.8643  -20.8972 C   0  0  1  0  0  0  0  0  0  0  0  0
  -17.9693   44.6159  -21.7112 C   0  0  0  0  0  0  0  0  0  0  0  0
  -19.2686   43.9808  -21.9858 C   0  0  0  0  0  0  0  0  0  0  0  0
  -19.4403   42.5909  -21.5713 C   0  0  0  0  0  0  0  0  0  0  0  0
  -20.5014   41.9256  -21.9960 C   0  0  0  0  0  0  0  0  0  0  0  0
  -20.7252   40.5218  -21.6090 C   0  0  0  0  0  0  0  0  0  0  0  0
  -21.2950   39.7310  -22.3687 O   0  0  0  0  0  0  0  0  0  0  0  0
  -20.2342   40.1130  -20.2707 C   0  0  0  0  0  0  0  0  0  0  0  0
  -19.3089   41.1317  -19.6595 C   0  0  0  0  0  0  0  0  0  0  0  0
  -18.4991   41.8728  -20.7010 C   0  0  2  0  0  0  0  0  0  0  0  0
  -17.6818   40.8412  -21.4520 C   0  0  0  0  0  0  0  0  0  0  0  0
  -16.3098   44.7699  -19.9607 C   0  0  2  0  0  0  0  0  0  0  0  0
  -15.7040   46.0293  -20.4979 C   0  0  0  0  0  0  0  0  0  0  0  0
  -14.9265   46.4062  -19.2673 C   0  0  0  0  0  0  0  0  0  0  0  0
  -14.5443   45.2934  -18.5958 C   0  0  0  0  0  0  0  0  0  0  0  0
  -13.7888   45.4038  -17.3740 C   0  0  0  0  0  0  0  0  0  0  0  0
  -12.9333   44.4046  -16.9579 C   0  0  0  0  0  0  0  0  0  0  0  0
  -12.1912   44.4767  -15.7793 C   0  0  0  0  0  0  0  0  0  0  0  0
  -12.3088   45.5856  -14.9906 C   0  0  0  0  0  0  0  0  0  0  0  0
  -13.1337   46.5611  -15.3812 N   0  0  0  0  0  0  0  0  0  0  0  0
  -13.8654   46.4930  -16.5407 C   0  0  0  0  0  0  0  0  0  0  0  0
  2  1  1  6
  2  3  1  0
  3  4  1  0
  5  4  1  6
  5  6  1  0
  6  7  1  1
  7  8  1  0
  8  9  1  0
  9 10  2  0
 10 11  1  0
 11 12  2  0
 11 13  1  0
 13 14  1  0
 14 15  1  0
 15 16  1  6
  6 17  1  0
 17 18  1  6
 18 19  1  0
 19 20  2  0
 20 21  1  0
 21 22  2  0
 22 23  1  0
 23 24  2  0
 24 25  1  0
 25 26  2  0
 17  2  1  0
 26 21  1  0
 20  2  1  0
 15  5  1  0
 15  9  1  0
M  END
$$$$
