
     RDKit          3D

 26 30  0  0  0  0  0  0  0  0999 V2000
  -23.3846   25.6175  -41.8296 C   0  0  0  0  0  0  0  0  0  0  0  0
  -22.4599   25.4980  -40.7627 O   0  0  0  0  0  0  0  0  0  0  0  0
  -21.6033   24.4305  -40.6118 C   0  0  0  0  0  0  0  0  0  0  0  0
  -21.0401   23.9731  -41.6353 O   0  0  0  0  0  0  0  0  0  0  0  0
  -21.3121   23.8006  -39.3348 C   0  0  0  0  0  0  0  0  0  0  0  0
  -20.2968   22.9668  -39.2075 C   0  0  0  0  0  0  0  0  0  0  0  0
  -19.9759   22.3384  -38.0089 O   0  0  0  0  0  0  0  0  0  0  0  0
  -20.6406   22.6858  -36.7919 C   0  0  0  0  0  0  0  0  0  0  0  0
  -20.6854   21.4168  -35.9625 C   0  0  0  0  0  0  0  0  0  0  0  0
  -22.0721   23.0515  -37.1048 C   0  0  0  0  0  0  0  0  0  0  0  0
  -22.7783   23.5753  -35.8947 C   0  0  0  0  0  0  0  0  0  0  0  0
  -24.1677   23.7470  -36.1872 N   0  0  0  0  0  0  0  0  0  0  0  0
  -24.9337   22.9079  -35.3192 C   0  0  0  0  0  0  0  0  0  0  0  0
  -26.3187   22.5892  -35.7927 C   0  0  0  0  0  0  0  0  0  0  0  0
  -26.8361   23.5401  -36.8100 C   0  0  0  0  0  0  0  0  0  0  0  0
  -25.9233   24.0406  -37.7172 C   0  0  0  0  0  0  0  0  0  0  0  0
  -26.6024   24.8640  -38.5263 N   0  0  0  0  0  0  0  0  0  0  0  0
  -27.9017   24.8960  -38.1589 C   0  0  0  0  0  0  0  0  0  0  0  0
  -28.9823   25.5734  -38.6609 C   0  0  0  0  0  0  0  0  0  0  0  0
  -30.2397   25.4154  -38.0707 C   0  0  0  0  0  0  0  0  0  0  0  0
  -30.4201   24.5853  -36.9838 C   0  0  0  0  0  0  0  0  0  0  0  0
  -29.3310   23.9079  -36.4844 C   0  0  0  0  0  0  0  0  0  0  0  0
  -28.0894   24.0620  -37.0649 C   0  0  0  0  0  0  0  0  0  0  0  0
  -24.5237   23.5610  -37.5599 C   0  0  0  0  0  0  0  0  0  0  0  0
  -23.6312   24.2379  -38.5352 C   0  0  0  0  0  0  0  0  0  0  0  0
  -22.1696   24.1080  -38.1824 C   0  0  0  0  0  0  0  0  0  0  0  0
  1  2  1  0
  2  3  1  0
  3  4  2  0
  3  5  1  0
  5  6  2  0
  6  7  1  0
  7  8  1  0
  8  9  1  0
  8 10  1  0
 10 11  1  0
 11 12  1  0
 12 13  1  0
 13 14  1  0
 14 15  1  0
 15 16  2  0
 16 17  1  0
 17 18  1  0
 18 19  2  0
 19 20  1  0
 20 21  2  0
 21 22  1  0
 22 23  2  0
 16 24  1  0
 24 25  1  0
 25 26  1  0
 26  5  1  0
 26 10  1  0
 24 12  1  0
 23 15  1  0
 23 18  1  0
M  END
$$$$
