
     RDKit          3D

 23 26  0  0  0  0  0  0  0  0999 V2000
  -18.7094   44.6646  -25.5067 C   0  0  0  0  0  0  0  0  0  0  0  0
  -19.0762   43.3747  -24.9029 N   0  0  0  0  0  0  0  0  0  0  0  0
  -18.3347   42.6381  -24.0555 C   0  0  0  0  0  0  0  0  0  0  0  0
  -19.0052   41.4851  -23.6969 C   0  0  0  0  0  0  0  0  0  0  0  0
  -18.5687   40.4158  -22.8049 C   0  0  0  0  0  0  0  0  0  0  0  0
  -17.5578   40.4875  -21.8701 C   0  0  0  0  0  0  0  0  0  0  0  0
  -17.4626   39.2796  -21.2430 N   0  0  0  0  0  0  0  0  0  0  0  0
  -18.3826   38.4581  -21.7581 N   0  0  0  0  0  0  0  0  0  0  0  0
  -18.6795   37.1732  -21.4719 C   0  0  0  0  0  0  0  0  0  0  0  0
  -17.9433   36.5012  -20.4696 N   0  0  0  0  0  0  0  0  0  0  0  0
  -19.6998   36.5916  -22.1894 C   0  0  0  0  0  0  0  0  0  0  0  0
  -20.1516   34.7773  -21.8163 Br  0  0  0  0  0  0  0  0  0  0  0  0
  -20.4020   37.2773  -23.1653 C   0  0  0  0  0  0  0  0  0  0  0  0
  -21.4851   36.5592  -23.8822 C   0  0  2  0  0  0  0  0  0  0  0  0
  -21.1232   36.3436  -25.3371 C   0  0  0  0  0  0  0  0  0  0  0  0
  -22.2595   35.6229  -26.0058 C   0  0  0  0  0  0  0  0  0  0  0  0
  -23.4179   35.3841  -25.0664 C   0  0  0  0  0  0  0  0  0  0  0  0
  -23.8466   36.5748  -24.3906 N   0  0  0  0  0  0  0  0  0  0  0  0
  -22.7761   37.3491  -23.8440 C   0  0  0  0  0  0  0  0  0  0  0  0
  -20.0707   38.5565  -23.4161 N   0  0  0  0  0  0  0  0  0  0  0  0
  -19.0678   39.1330  -22.7129 C   0  0  0  0  0  0  0  0  0  0  0  0
  -20.2149   41.5673  -24.3871 C   0  0  0  0  0  0  0  0  0  0  0  0
  -20.1950   42.7159  -25.0868 N   0  0  0  0  0  0  0  0  0  0  0  0
  1  2  1  0
  2  3  1  0
  3  4  2  0
  4  5  1  0
  5  6  1  0
  6  7  2  0
  7  8  1  0
  8  9  1  0
  9 10  1  0
  9 11  2  0
 11 12  1  0
 11 13  1  0
 14 13  1  1
 14 15  1  0
 15 16  1  0
 16 17  1  0
 17 18  1  0
 18 19  1  0
 13 20  2  0
 20 21  1  0
  4 22  1  0
 22 23  2  0
 23  2  1  0
 21  5  2  0
 21  8  1  0
 19 14  1  0
M  END
$$$$
