
     RDKit          3D

 23 25  0  0  0  0  0  0  0  0999 V2000
  -22.6003   31.8284  -18.5185 C   0  0  0  0  0  0  0  0  0  0  0  0
  -21.5928   32.1553  -19.6157 C   0  0  0  0  0  0  0  0  0  0  0  0
  -20.8422   31.1768  -20.2197 C   0  0  0  0  0  0  0  0  0  0  0  0
  -19.8861   32.1821  -21.3854 S   0  0  0  0  0  0  0  0  0  0  0  0
  -20.6133   33.7326  -20.9061 C   0  0  0  0  0  0  0  0  0  0  0  0
  -20.2296   34.9681  -21.5250 N   0  0  0  0  0  0  0  0  0  0  0  0
  -18.9637   35.1659  -22.1009 C   0  0  0  0  0  0  0  0  0  0  0  0
  -18.0282   34.3679  -21.9535 O   0  0  0  0  0  0  0  0  0  0  0  0
  -18.7450   36.4067  -22.9339 C   0  0  0  0  0  0  0  0  0  0  0  0
  -17.3468   37.2788  -22.2008 S   0  0  0  0  0  0  0  0  0  0  0  0
  -17.7579   39.0400  -22.2681 C   0  0  0  0  0  0  0  0  0  0  0  0
  -18.0839   39.7201  -21.1169 C   0  0  0  0  0  0  0  0  0  0  0  0
  -18.3975   41.0651  -21.2287 C   0  0  0  0  0  0  0  0  0  0  0  0
  -18.3910   41.7218  -22.4333 C   0  0  0  0  0  0  0  0  0  0  0  0
  -18.7259   43.1431  -22.5757 C   0  0  0  0  0  0  0  0  0  0  0  0
  -18.7893   43.7957  -23.7812 C   0  0  0  0  0  0  0  0  0  0  0  0
  -19.1021   45.1477  -23.9175 C   0  0  0  0  0  0  0  0  0  0  0  0
  -19.3624   45.8680  -22.7728 C   0  0  0  0  0  0  0  0  0  0  0  0
  -19.3060   45.2369  -21.5471 C   0  0  0  0  0  0  0  0  0  0  0  0
  -18.9953   43.9018  -21.4331 C   0  0  0  0  0  0  0  0  0  0  0  0
  -18.0605   40.9844  -23.5176 N   0  0  0  0  0  0  0  0  0  0  0  0
  -17.7548   39.6833  -23.4271 N   0  0  0  0  0  0  0  0  0  0  0  0
  -21.4129   33.3799  -20.0170 N   0  0  0  0  0  0  0  0  0  0  0  0
  1  2  1  0
  2  3  2  0
  3  4  1  0
  4  5  1  0
  5  6  1  0
  6  7  1  0
  7  8  2  0
  7  9  1  0
  9 10  1  0
 10 11  1  0
 11 12  2  0
 12 13  1  0
 13 14  2  0
 14 15  1  0
 15 16  2  0
 16 17  1  0
 17 18  2  0
 18 19  1  0
 19 20  2  0
 14 21  1  0
 21 22  2  0
  5 23  2  0
 23  2  1  0
 22 11  1  0
 20 15  1  0
M  END
$$$$
