
     RDKit          3D

 22 24  0  0  0  0  0  0  0  0999 V2000
  -18.4236   34.7995  -22.2542 C   0  0  0  0  0  0  0  0  0  0  0  0
  -19.6503   35.6434  -21.9416 C   0  0  0  0  0  0  0  0  0  0  0  0
  -19.3960   36.6122  -20.9239 N   0  0  0  0  0  0  0  0  0  0  0  0
  -18.8412   37.9079  -21.2004 C   0  0  0  0  0  0  0  0  0  0  0  0
  -17.6878   37.9246  -21.7027 O   0  0  0  0  0  0  0  0  0  0  0  0
  -19.6115   39.1521  -20.8991 C   0  0  1  0  0  0  0  0  0  0  0  0
  -18.9414   39.8344  -19.9207 O   0  0  0  0  0  0  0  0  0  0  0  0
  -18.7974   41.1509  -20.3117 C   0  0  1  0  0  0  0  0  0  0  0  0
  -17.6940   41.8169  -19.6740 N   0  0  0  0  0  0  0  0  0  0  0  0
  -16.8020   41.3230  -18.7959 C   0  0  0  0  0  0  0  0  0  0  0  0
  -15.9175   42.2806  -18.4336 N   0  0  0  0  0  0  0  0  0  0  0  0
  -16.2255   43.4032  -19.0711 C   0  0  0  0  0  0  0  0  0  0  0  0
  -15.6492   44.6659  -19.0593 C   0  0  0  0  0  0  0  0  0  0  0  0
  -14.5084   44.9798  -18.2684 N   0  0  0  0  0  0  0  0  0  0  0  0
  -16.2355   45.5873  -19.8460 N   0  0  0  0  0  0  0  0  0  0  0  0
  -17.3141   45.3229  -20.6051 C   0  0  0  0  0  0  0  0  0  0  0  0
  -17.8572   44.0909  -20.6015 N   0  0  0  0  0  0  0  0  0  0  0  0
  -17.3335   43.1129  -19.8444 C   0  0  0  0  0  0  0  0  0  0  0  0
  -18.6501   41.0720  -21.8161 C   0  0  2  0  0  0  0  0  0  0  0  0
  -18.9828   42.2830  -22.4062 O   0  0  0  0  0  0  0  0  0  0  0  0
  -19.6897   39.9990  -22.1244 C   0  0  2  0  0  0  0  0  0  0  0  0
  -20.9215   40.5961  -22.2612 O   0  0  0  0  0  0  0  0  0  0  0  0
  1  2  1  0
  2  3  1  0
  3  4  1  0
  4  5  2  0
  6  4  1  6
  6  7  1  0
  7  8  1  0
  8  9  1  1
  9 10  1  0
 10 11  2  0
 11 12  1  0
 12 13  2  0
 13 14  1  0
 13 15  1  0
 15 16  2  0
 16 17  1  0
 17 18  2  0
  8 19  1  0
 19 20  1  6
 19 21  1  0
 21 22  1  1
 21  6  1  0
 18  9  1  0
 18 12  1  0
M  END
$$$$
