
     RDKit          3D

 15 16  0  0  0  0  0  0  0  0999 V2000
  -15.9041   44.2187  -18.2638 N   0  0  0  0  0  0  0  0  0  0  0  0
  -16.6224   43.2281  -18.9847 C   0  0  0  0  0  0  0  0  0  0  0  0
  -16.4466   43.0931  -20.3464 C   0  0  0  0  0  0  0  0  0  0  0  0
  -17.1574   42.1163  -21.0456 C   0  0  0  0  0  0  0  0  0  0  0  0
  -18.0128   41.2974  -20.4337 N   0  0  0  0  0  0  0  0  0  0  0  0
  -18.7754   40.2772  -21.0707 C   0  0  2  0  0  0  0  0  0  0  0  0
  -19.5924   39.4405  -20.0747 C   0  0  0  0  0  0  0  0  0  0  0  0
  -20.0856   38.1437  -21.2882 S   0  0  0  0  0  0  0  0  0  0  0  0
  -18.7057   38.5110  -22.4488 C   0  0  2  0  0  0  0  0  0  0  0  0
  -17.8912   37.2146  -22.5188 C   0  0  0  0  0  0  0  0  0  0  0  0
  -18.7129   36.1094  -22.6938 O   0  0  0  0  0  0  0  0  0  0  0  0
  -17.9597   39.4217  -21.7460 O   0  0  0  0  0  0  0  0  0  0  0  0
  -18.1647   41.4543  -19.0929 C   0  0  0  0  0  0  0  0  0  0  0  0
  -18.9753   40.6894  -18.4678 O   0  0  0  0  0  0  0  0  0  0  0  0
  -17.4944   42.3828  -18.4040 N   0  0  0  0  0  0  0  0  0  0  0  0
  1  2  1  0
  2  3  1  0
  3  4  2  0
  4  5  1  0
  6  5  1  1
  6  7  1  0
  7  8  1  0
  8  9  1  0
  9 10  1  1
 10 11  1  0
  9 12  1  0
  5 13  1  0
 13 14  2  0
 13 15  1  0
 15  2  2  0
 12  6  1  0
M  END
$$$$
