
     RDKit          3D

 26 28  0  0  0  0  0  0  0  0999 V2000
  -17.8307   35.3455  -20.4933 N   0  0  0  0  0  0  0  0  0  0  0  0
  -18.4440   36.2469  -20.9458 C   0  0  0  0  0  0  0  0  0  0  0  0
  -19.1832   37.3367  -21.5194 C   0  0  0  0  0  0  0  0  0  0  0  0
  -19.9172   37.1465  -22.6655 C   0  0  0  0  0  0  0  0  0  0  0  0
  -19.9764   35.8412  -23.3395 C   0  0  0  0  0  0  0  0  0  0  0  0
  -19.3934   34.6415  -23.0691 C   0  0  0  0  0  0  0  0  0  0  0  0
  -19.6381   33.6039  -23.8817 C   0  0  0  0  0  0  0  0  0  0  0  0
  -20.4507   33.7770  -24.9386 C   0  0  0  0  0  0  0  0  0  0  0  0
  -20.9432   35.4996  -24.8453 S   0  0  0  0  0  0  0  0  0  0  0  0
  -20.5896   38.1880  -23.1667 N   0  0  0  0  0  0  0  0  0  0  0  0
  -20.5481   39.4056  -22.5569 C   0  0  0  0  0  0  0  0  0  0  0  0
  -21.4402   40.7234  -23.3196 S   0  0  0  0  0  0  0  0  0  0  0  0
  -21.1302   42.3010  -22.5717 C   0  0  0  0  0  0  0  0  0  0  0  0
  -19.7141   42.7317  -22.6646 C   0  0  0  0  0  0  0  0  0  0  0  0
  -18.8126   42.3653  -23.6135 C   0  0  0  0  0  0  0  0  0  0  0  0
  -17.5012   42.8545  -23.6200 C   0  0  0  0  0  0  0  0  0  0  0  0
  -17.0997   43.7325  -22.6413 C   0  0  0  0  0  0  0  0  0  0  0  0
  -17.9867   44.1351  -21.6496 C   0  0  0  0  0  0  0  0  0  0  0  0
  -17.5312   45.0861  -20.5999 C   0  0  0  0  0  0  0  0  0  0  0  0
  -18.0788   46.4154  -20.8931 C   0  0  0  0  0  0  0  0  0  0  0  0
  -17.3924   47.4356  -20.7366 O   0  0  0  0  0  0  0  0  0  0  0  0
  -19.3790   46.5794  -21.3542 O   0  0  0  0  0  0  0  0  0  0  0  0
  -19.2524   43.6247  -21.6957 C   0  0  0  0  0  0  0  0  0  0  0  0
  -19.8238   39.5802  -21.4296 N   0  0  0  0  0  0  0  0  0  0  0  0
  -19.1297   38.5702  -20.8840 C   0  0  0  0  0  0  0  0  0  0  0  0
  -18.4435   38.6721  -19.8466 O   0  0  0  0  0  0  0  0  0  0  0  0
  1  2  3  0
  2  3  1  0
  3  4  2  0
  4  5  1  0
  5  6  2  0
  6  7  1  0
  7  8  2  0
  8  9  1  0
  4 10  1  0
 10 11  2  0
 11 12  1  0
 12 13  1  0
 13 14  1  0
 14 15  2  0
 15 16  1  0
 16 17  2  0
 17 18  1  0
 18 19  1  0
 19 20  1  0
 20 21  2  0
 20 22  1  0
 18 23  2  0
 11 24  1  0
 24 25  1  0
 25 26  2  0
 25  3  1  0
  9  5  1  0
 23 14  1  0
M  END
$$$$
