
     RDKit          3D

 36 39  0  0  0  0  0  0  0  0999 V2000
  -20.5910   31.9617  -26.3292 C   0  0  0  0  0  0  0  0  0  0  0  0
  -20.9331   33.1692  -25.5311 N   0  0  0  0  0  0  0  0  0  0  0  0
  -22.0343   33.9779  -25.9072 C   0  0  0  0  0  0  0  0  0  0  0  0
  -22.6584   33.6032  -26.8990 O   0  0  0  0  0  0  0  0  0  0  0  0
  -22.3655   35.1696  -25.1386 C   0  0  0  0  0  0  0  0  0  0  0  0
  -23.3603   36.0168  -25.6523 C   0  0  0  0  0  0  0  0  0  0  0  0
  -23.7269   37.2104  -25.0840 C   0  0  0  0  0  0  0  0  0  0  0  0
  -23.0560   37.5696  -23.9385 C   0  0  0  0  0  0  0  0  0  0  0  0
  -22.0873   36.8065  -23.3836 C   0  0  0  0  0  0  0  0  0  0  0  0
  -21.7366   35.5778  -23.9991 C   0  0  0  0  0  0  0  0  0  0  0  0
  -20.7429   34.8177  -23.3674 N   0  0  0  0  0  0  0  0  0  0  0  0
  -19.6701   35.1283  -22.5386 C   0  0  0  0  0  0  0  0  0  0  0  0
  -19.0808   36.3952  -22.4892 C   0  0  0  0  0  0  0  0  0  0  0  0
  -18.0362   36.7492  -21.6986 C   0  0  0  0  0  0  0  0  0  0  0  0
  -17.5090   38.0831  -21.7273 N   0  0  0  0  0  0  0  0  0  0  0  0
  -18.2547   39.1774  -22.2158 C   0  0  0  0  0  0  0  0  0  0  0  0
  -18.9015   39.0614  -23.4268 C   0  0  0  0  0  0  0  0  0  0  0  0
  -19.6493   40.0822  -23.9735 C   0  0  0  0  0  0  0  0  0  0  0  0
  -19.7773   41.2876  -23.3051 C   0  0  0  0  0  0  0  0  0  0  0  0
  -20.5336   42.3530  -23.8275 N   0  0  0  0  0  0  0  0  0  0  0  0
  -20.3884   43.7165  -23.3597 C   0  0  0  0  0  0  0  0  0  0  0  0
  -20.7652   44.6100  -24.5442 C   0  0  0  0  0  0  0  0  0  0  0  0
  -22.0959   44.4810  -24.8898 O   0  0  0  0  0  0  0  0  0  0  0  0
  -22.5944   43.2148  -24.6611 C   0  0  0  0  0  0  0  0  0  0  0  0
  -21.5224   42.1386  -24.8825 C   0  0  0  0  0  0  0  0  0  0  0  0
  -19.1375   41.4188  -22.0951 C   0  0  0  0  0  0  0  0  0  0  0  0
  -18.3829   40.3804  -21.5497 C   0  0  0  0  0  0  0  0  0  0  0  0
  -17.7442   40.5322  -20.3262 O   0  0  0  0  0  0  0  0  0  0  0  0
  -18.4691   40.3874  -19.1094 C   0  0  0  0  0  0  0  0  0  0  0  0
  -17.5151   35.8125  -20.8902 N   0  0  0  0  0  0  0  0  0  0  0  0
  -18.0486   34.5734  -20.9005 C   0  0  0  0  0  0  0  0  0  0  0  0
  -19.1084   34.1815  -21.6907 C   0  0  0  0  0  0  0  0  0  0  0  0
  -19.6062   32.7768  -21.6135 C   0  0  0  0  0  0  0  0  0  0  0  0
  -18.7486   32.0687  -20.7518 F   0  0  0  0  0  0  0  0  0  0  0  0
  -20.8408   32.6590  -21.0567 F   0  0  0  0  0  0  0  0  0  0  0  0
  -19.4477   32.1399  -22.8291 F   0  0  0  0  0  0  0  0  0  0  0  0
  1  2  1  0
  2  3  1  0
  3  4  2  0
  3  5  1  0
  5  6  2  0
  6  7  1  0
  7  8  2  0
  8  9  1  0
  9 10  2  0
 10 11  1  0
 11 12  1  0
 12 13  2  0
 13 14  1  0
 14 15  1  0
 15 16  1  0
 16 17  2  0
 17 18  1  0
 18 19  2  0
 19 20  1  0
 20 21  1  0
 21 22  1  0
 22 23  1  0
 23 24  1  0
 24 25  1  0
 19 26  1  0
 26 27  2  0
 27 28  1  0
 28 29  1  0
 14 30  2  0
 30 31  1  0
 31 32  2  0
 32 33  1  0
 33 34  1  0
 33 35  1  0
 33 36  1  0
 10  5  1  0
 32 12  1  0
 27 16  1  0
 25 20  1  0
M  END
$$$$
