
     RDKit          3D

 17 18  0  0  0  0  0  0  0  0999 V2000
  -16.4369   17.2622  -39.3297 O   0  0  0  0  0  0  0  0  0  0  0  0
  -16.0409   17.8213  -38.2641 C   0  0  0  0  0  0  0  0  0  0  0  0
  -14.6606   18.0523  -38.1343 N   0  0  0  0  0  0  0  0  0  0  0  0
  -13.7016   17.8011  -39.1558 C   0  0  0  0  0  0  0  0  0  0  0  0
  -12.4761   17.2364  -38.9109 C   0  0  0  0  0  0  0  0  0  0  0  0
  -11.6046   17.0260  -39.9517 C   0  0  0  0  0  0  0  0  0  0  0  0
  -11.9695   17.3855  -41.2407 C   0  0  0  0  0  0  0  0  0  0  0  0
  -10.6616   17.0809  -42.8735 I   0  0  0  0  0  0  0  0  0  0  0  0
  -13.1950   17.9559  -41.5221 C   0  0  0  0  0  0  0  0  0  0  0  0
  -14.0507   18.1552  -40.4537 C   0  0  0  0  0  0  0  0  0  0  0  0
  -17.0152   18.1622  -37.3042 N   0  0  0  0  0  0  0  0  0  0  0  0
  -18.3206   17.5597  -37.2034 C   0  0  0  0  0  0  0  0  0  0  0  0
  -19.4186   18.4585  -37.6838 C   0  0  0  0  0  0  0  0  0  0  0  0
  -20.6701   17.5944  -37.7983 C   0  0  0  0  0  0  0  0  0  0  0  0
  -21.0607   17.0205  -36.4600 C   0  0  0  0  0  0  0  0  0  0  0  0
  -20.0391   17.2876  -35.3889 C   0  0  0  0  0  0  0  0  0  0  0  0
  -18.6296   17.0874  -35.8248 C   0  0  0  0  0  0  0  0  0  0  0  0
  1  2  2  0
  2  3  1  0
  3  4  1  0
  4  5  2  0
  5  6  1  0
  6  7  2  0
  7  8  1  0
  7  9  1  0
  9 10  2  0
  2 11  1  0
 11 12  1  0
 12 13  1  0
 13 14  1  0
 14 15  1  0
 15 16  1  0
 16 17  1  0
 10  4  1  0
 17 12  1  0
M  END
$$$$
