
     RDKit          3D

 45 50  0  0  0  0  0  0  0  0999 V2000
  -13.0046   49.0454  -18.2880 C   0  0  0  0  0  0  0  0  0  0  0  0
  -13.5409   48.7447  -19.5526 O   0  0  0  0  0  0  0  0  0  0  0  0
  -14.4327   47.6927  -19.6929 C   0  0  0  0  0  0  0  0  0  0  0  0
  -14.1291   46.4193  -19.2483 C   0  0  0  0  0  0  0  0  0  0  0  0
  -15.0517   45.3858  -19.4068 C   0  0  0  0  0  0  0  0  0  0  0  0
  -14.7596   44.1144  -18.9690 C   0  0  0  0  0  0  0  0  0  0  0  0
  -13.5382   43.7615  -18.3486 N   0  0  0  0  0  0  0  0  0  0  0  0
  -12.8884   42.4899  -18.6189 C   0  0  0  0  0  0  0  0  0  0  0  0
  -13.3822   41.3635  -17.7923 C   0  0  0  0  0  0  0  0  0  0  0  0
  -12.6338   41.2511  -16.5201 C   0  0  0  0  0  0  0  0  0  0  0  0
  -11.7898   42.3158  -16.1365 N   0  0  0  0  0  0  0  0  0  0  0  0
  -10.9297   41.8426  -15.0363 C   0  0  0  0  0  0  0  0  0  0  0  0
   -9.5043   42.0139  -15.4411 C   0  0  0  0  0  0  0  0  0  0  0  0
   -8.5473   41.3977  -14.4379 C   0  0  0  0  0  0  0  0  0  0  0  0
   -8.8088   39.9207  -14.3158 C   0  0  0  0  0  0  0  0  0  0  0  0
  -10.2476   39.7663  -13.8686 C   0  0  0  0  0  0  0  0  0  0  0  0
  -11.2115   40.3676  -14.8353 C   0  0  0  0  0  0  0  0  0  0  0  0
  -10.8817   42.7768  -17.1555 C   0  0  0  0  0  0  0  0  0  0  0  0
  -11.4022   42.5644  -18.5510 C   0  0  0  0  0  0  0  0  0  0  0  0
  -15.6883   43.1497  -19.1472 N   0  0  0  0  0  0  0  0  0  0  0  0
  -16.8764   43.3648  -19.7265 C   0  0  0  0  0  0  0  0  0  0  0  0
  -17.8541   42.3566  -19.9065 N   0  0  0  0  0  0  0  0  0  0  0  0
  -19.2078   42.8012  -20.1538 C   0  0  0  0  0  0  0  0  0  0  0  0
  -19.5184   42.4767  -21.6120 C   0  0  0  0  0  0  0  0  0  0  0  0
  -19.0833   41.0440  -21.8441 C   0  0  0  0  0  0  0  0  0  0  0  0
  -19.4851   40.2429  -20.7323 N   0  0  0  0  0  0  0  0  0  0  0  0
  -20.1174   39.0054  -21.1594 C   0  0  0  0  0  0  0  0  0  0  0  0
  -19.8168   37.8985  -20.1728 C   0  0  0  0  0  0  0  0  0  0  0  0
  -19.6432   38.5727  -22.5173 C   0  0  0  0  0  0  0  0  0  0  0  0
  -18.4513   39.9822  -19.7686 C   0  0  0  0  0  0  0  0  0  0  0  0
  -17.3461   41.0120  -19.8104 C   0  0  0  0  0  0  0  0  0  0  0  0
  -17.1394   44.6074  -20.1450 N   0  0  0  0  0  0  0  0  0  0  0  0
  -16.2758   45.6258  -20.0088 C   0  0  0  0  0  0  0  0  0  0  0  0
  -16.5416   46.9012  -20.4371 C   0  0  0  0  0  0  0  0  0  0  0  0
  -15.6490   47.9423  -20.2940 C   0  0  0  0  0  0  0  0  0  0  0  0
  -15.9359   49.2171  -20.7327 O   0  0  0  0  0  0  0  0  0  0  0  0
  -17.2531   49.6255  -21.0773 C   0  0  0  0  0  0  0  0  0  0  0  0
  -17.6158   50.8751  -20.3029 C   0  0  0  0  0  0  0  0  0  0  0  0
  -17.5279   52.0683  -21.2129 C   0  0  0  0  0  0  0  0  0  0  0  0
  -18.2276   53.2168  -20.7714 N   0  0  0  0  0  0  0  0  0  0  0  0
  -19.5282   53.0177  -20.2306 C   0  0  0  0  0  0  0  0  0  0  0  0
  -19.9747   54.2970  -19.5529 C   0  0  0  0  0  0  0  0  0  0  0  0
  -20.0895   55.4113  -20.5453 C   0  0  0  0  0  0  0  0  0  0  0  0
  -19.3373   55.1117  -21.7988 C   0  0  0  0  0  0  0  0  0  0  0  0
  -18.0420   54.4038  -21.5409 C   0  0  0  0  0  0  0  0  0  0  0  0
  1  2  1  0
  2  3  1  0
  3  4  2  0
  4  5  1  0
  5  6  2  0
  6  7  1  0
  7  8  1  0
  8  9  1  0
  9 10  1  0
 10 11  1  0
 11 12  1  0
 12 13  1  0
 13 14  1  0
 14 15  1  0
 15 16  1  0
 16 17  1  0
 11 18  1  0
 18 19  1  0
  6 20  1  0
 20 21  2  0
 21 22  1  0
 22 23  1  0
 23 24  1  0
 24 25  1  0
 25 26  1  0
 26 27  1  0
 27 28  1  0
 27 29  1  0
 26 30  1  0
 30 31  1  0
 21 32  1  0
 32 33  2  0
 33 34  1  0
 34 35  2  0
 35 36  1  0
 36 37  1  0
 37 38  1  0
 38 39  1  0
 39 40  1  0
 40 41  1  0
 41 42  1  0
 42 43  1  0
 43 44  1  0
 44 45  1  0
 35  3  1  0
 45 40  1  0
 33  5  1  0
 19  8  1  0
 31 22  1  0
 17 12  1  0
M  END
$$$$
