
     RDKit          3D

 34 38  0  0  0  0  0  0  0  0999 V2000
  -23.5904   19.5779  -31.4309 C   0  0  0  0  0  0  0  0  0  0  0  0
  -23.9339   19.0232  -32.7638 C   0  0  0  0  0  0  0  0  0  0  0  0
  -24.8563   19.7010  -33.5299 C   0  0  0  0  0  0  0  0  0  0  0  0
  -25.2030   19.2179  -34.7757 C   0  0  0  0  0  0  0  0  0  0  0  0
  -24.6072   18.0620  -35.2132 C   0  0  0  0  0  0  0  0  0  0  0  0
  -24.9347   17.5783  -36.4243 F   0  0  0  0  0  0  0  0  0  0  0  0
  -23.6849   17.3992  -34.4276 C   0  0  0  0  0  0  0  0  0  0  0  0
  -23.3270   17.8663  -33.1826 C   0  0  0  0  0  0  0  0  0  0  0  0
  -22.3784   17.1960  -32.3597 C   0  0  0  0  0  0  0  0  0  0  0  0
  -22.4249   15.9241  -32.2832 O   0  0  0  0  0  0  0  0  0  0  0  0
  -21.3576   17.8270  -31.5951 N   0  0  0  0  0  0  0  0  0  0  0  0
  -20.3200   17.0607  -30.9851 C   0  0  0  0  0  0  0  0  0  0  0  0
  -19.1016   17.6417  -30.7263 C   0  0  0  0  0  0  0  0  0  0  0  0
  -18.0902   16.9136  -30.1407 C   0  0  0  0  0  0  0  0  0  0  0  0
  -18.2149   15.5923  -29.7810 C   0  0  0  0  0  0  0  0  0  0  0  0
  -17.2020   14.8443  -29.0880 C   0  0  0  0  0  0  0  0  0  0  0  0
  -17.3966   14.7921  -27.7983 O   0  0  0  0  0  0  0  0  0  0  0  0
  -16.0731   14.1578  -29.5221 N   0  0  0  0  0  0  0  0  0  0  0  0
  -15.7202   14.3351  -30.9308 C   0  0  0  0  0  0  0  0  0  0  0  0
  -14.3563   13.9244  -31.2800 C   0  0  0  0  0  0  0  0  0  0  0  0
  -14.0895   13.5146  -32.6005 C   0  0  0  0  0  0  0  0  0  0  0  0
  -12.7550   13.1970  -32.6529 C   0  0  0  0  0  0  0  0  0  0  0  0
  -12.2535   13.4156  -31.3934 C   0  0  0  0  0  0  0  0  0  0  0  0
  -13.2404   13.8584  -30.5676 N   0  0  0  0  0  0  0  0  0  0  0  0
  -12.9455   14.1542  -29.1536 C   0  0  0  0  0  0  0  0  0  0  0  0
  -13.9763   13.4043  -28.3416 C   0  0  0  0  0  0  0  0  0  0  0  0
  -13.4783   12.6378  -27.3371 C   0  0  0  0  0  0  0  0  0  0  0  0
  -14.3120   11.8657  -26.5306 C   0  0  0  0  0  0  0  0  0  0  0  0
  -15.6724   11.8958  -26.7780 C   0  0  0  0  0  0  0  0  0  0  0  0
  -16.2070   12.6594  -27.7852 C   0  0  0  0  0  0  0  0  0  0  0  0
  -15.3558   13.4118  -28.5610 C   0  0  0  0  0  0  0  0  0  0  0  0
  -19.4667   15.0251  -30.0558 C   0  0  0  0  0  0  0  0  0  0  0  0
  -19.6632   13.3363  -29.6086 Cl  0  0  0  0  0  0  0  0  0  0  0  0
  -20.4822   15.7421  -30.6391 C   0  0  0  0  0  0  0  0  0  0  0  0
  1  2  1  0
  2  3  2  0
  3  4  1  0
  4  5  2  0
  5  6  1  0
  5  7  1  0
  7  8  2  0
  8  9  1  0
  9 10  2  0
  9 11  1  0
 11 12  1  0
 12 13  2  0
 13 14  1  0
 14 15  2  0
 15 16  1  0
 16 17  2  0
 16 18  1  0
 18 19  1  0
 19 20  1  0
 20 21  2  0
 21 22  1  0
 22 23  2  0
 23 24  1  0
 24 25  1  0
 25 26  1  0
 26 27  2  0
 27 28  1  0
 28 29  2  0
 29 30  1  0
 30 31  2  0
 15 32  1  0
 32 33  1  0
 32 34  2  0
  8  2  1  0
 34 12  1  0
 31 18  1  0
 24 20  1  0
 31 26  1  0
M  END
$$$$
