
     RDKit          3D

 40 45  0  0  0  0  0  0  0  0999 V2000
  -22.3666   42.9681  -25.4146 N   0  0  0  0  0  0  0  0  0  0  0  0
  -22.5756   42.1421  -24.5375 C   0  0  0  0  0  0  0  0  0  0  0  0
  -22.7904   41.1941  -23.5364 C   0  0  0  0  0  0  0  0  0  0  0  0
  -21.6492   40.2322  -23.3367 C   0  0  0  0  0  0  0  0  0  0  0  0
  -21.9705   38.9278  -22.8630 N   0  0  0  0  0  0  0  0  0  0  0  0
  -21.0634   38.0619  -22.3844 C   0  0  0  0  0  0  0  0  0  0  0  0
  -21.6742   36.8794  -22.0232 C   0  0  0  0  0  0  0  0  0  0  0  0
  -20.9867   35.7284  -21.4641 C   0  0  0  0  0  0  0  0  0  0  0  0
  -21.6015   34.9376  -20.5240 N   0  0  0  0  0  0  0  0  0  0  0  0
  -20.9497   33.8733  -20.0233 C   0  0  0  0  0  0  0  0  0  0  0  0
  -19.7115   33.5347  -20.3969 N   0  0  0  0  0  0  0  0  0  0  0  0
  -19.0457   34.2799  -21.3265 C   0  0  0  0  0  0  0  0  0  0  0  0
  -17.8304   34.2040  -21.8954 N   0  0  0  0  0  0  0  0  0  0  0  0
  -17.7192   35.2425  -22.7692 C   0  0  0  0  0  0  0  0  0  0  0  0
  -18.8820   35.9748  -22.7437 C   0  0  0  0  0  0  0  0  0  0  0  0
  -19.7191   35.3676  -21.8334 C   0  0  0  0  0  0  0  0  0  0  0  0
  -23.0164   37.0854  -22.3149 C   0  0  0  0  0  0  0  0  0  0  0  0
  -23.1482   38.3358  -22.8189 N   0  0  0  0  0  0  0  0  0  0  0  0
  -20.4892   40.3375  -24.2960 C   0  0  0  0  0  0  0  0  0  0  0  0
  -20.2346   41.6237  -23.6650 N   0  0  0  0  0  0  0  0  0  0  0  0
  -18.9345   42.1653  -23.6903 C   0  0  0  0  0  0  0  0  0  0  0  0
  -18.2974   41.8471  -22.3312 C   0  0  0  0  0  0  0  0  0  0  0  0
  -18.3404   43.1004  -21.4844 C   0  0  0  0  0  0  0  0  0  0  0  0
  -17.3691   44.0084  -22.0721 N   0  0  0  0  0  0  0  0  0  0  0  0
  -16.4784   44.8030  -21.3042 C   0  0  0  0  0  0  0  0  0  0  0  0
  -15.9901   45.8222  -21.8594 O   0  0  0  0  0  0  0  0  0  0  0  0
  -16.0819   44.5418  -19.9384 C   0  0  0  0  0  0  0  0  0  0  0  0
  -16.9643   44.7301  -18.9106 C   0  0  0  0  0  0  0  0  0  0  0  0
  -16.5967   44.4834  -17.5927 C   0  0  0  0  0  0  0  0  0  0  0  0
  -15.3451   44.0494  -17.3096 N   0  0  0  0  0  0  0  0  0  0  0  0
  -14.4495   43.8517  -18.2870 C   0  0  0  0  0  0  0  0  0  0  0  0
  -13.0564   43.3663  -17.9885 C   0  0  0  0  0  0  0  0  0  0  0  0
  -12.1033   44.2394  -18.4442 F   0  0  0  0  0  0  0  0  0  0  0  0
  -12.9141   43.2392  -16.6034 F   0  0  0  0  0  0  0  0  0  0  0  0
  -12.8890   42.1145  -18.5145 F   0  0  0  0  0  0  0  0  0  0  0  0
  -14.8051   44.0939  -19.5999 C   0  0  0  0  0  0  0  0  0  0  0  0
  -13.8955   43.8901  -20.5694 F   0  0  0  0  0  0  0  0  0  0  0  0
  -17.3685   44.0431  -23.5311 C   0  0  0  0  0  0  0  0  0  0  0  0
  -18.7791   43.6109  -23.9633 C   0  0  0  0  0  0  0  0  0  0  0  0
  -20.5749   40.9131  -22.4119 C   0  0  0  0  0  0  0  0  0  0  0  0
  1  2  3  0
  2  3  1  0
  3  4  1  0
  4  5  1  0
  5  6  1  0
  6  7  2  0
  7  8  1  0
  8  9  2  0
  9 10  1  0
 10 11  2  0
 11 12  1  0
 12 13  1  0
 13 14  1  0
 14 15  2  0
 15 16  1  0
  7 17  1  0
 17 18  2  0
  4 19  1  0
 19 20  1  0
 20 21  1  0
 21 22  1  0
 22 23  1  0
 23 24  1  0
 24 25  1  0
 25 26  2  0
 25 27  1  0
 27 28  2  0
 28 29  1  0
 29 30  2  0
 30 31  1  0
 31 32  1  0
 32 33  1  0
 32 34  1  0
 32 35  1  0
 31 36  2  0
 36 37  1  0
 24 38  1  0
 38 39  1  0
 20 40  1  0
 40  4  1  0
 18  5  1  0
 39 21  1  0
 16  8  1  0
 36 27  1  0
 16 12  2  0
M  END
$$$$
