
     RDKit          3D

 22 23  0  0  0  0  0  0  0  0999 V2000
  -30.7585   15.5970  -22.8762 C   0  0  0  0  0  0  0  0  0  0  0  0
  -29.3166   15.8687  -23.3036 C   0  0  0  0  0  0  0  0  0  0  0  0
  -28.3413   15.2505  -22.7369 N   0  0  0  0  0  0  0  0  0  0  0  0
  -27.1355   15.4034  -23.0035 C   0  0  0  0  0  0  0  0  0  0  0  0
  -25.8771   14.8474  -22.5198 C   0  0  0  0  0  0  0  0  0  0  0  0
  -25.2427   13.8271  -23.1615 C   0  0  0  0  0  0  0  0  0  0  0  0
  -24.0116   13.3488  -22.6825 C   0  0  0  0  0  0  0  0  0  0  0  0
  -23.4226   13.9040  -21.5573 C   0  0  0  0  0  0  0  0  0  0  0  0
  -22.2479   13.4877  -21.0640 O   0  0  0  0  0  0  0  0  0  0  0  0
  -21.2398   12.6920  -21.5559 C   0  0  0  0  0  0  0  0  0  0  0  0
  -20.0018   12.9828  -20.6878 C   0  0  0  0  0  0  0  0  0  0  0  0
  -18.8823   12.0942  -21.2766 C   0  0  0  0  0  0  0  0  0  0  0  0
  -20.2914   12.4174  -19.3175 C   0  0  0  0  0  0  0  0  0  0  0  0
  -24.0859   14.9521  -20.9054 C   0  0  0  0  0  0  0  0  0  0  0  0
  -23.5046   15.5887  -19.7246 C   0  0  0  0  0  0  0  0  0  0  0  0
  -23.0322   16.0797  -18.8060 N   0  0  0  0  0  0  0  0  0  0  0  0
  -25.2819   15.3863  -21.4018 C   0  0  0  0  0  0  0  0  0  0  0  0
  -27.2301   16.6542  -24.3158 S   0  0  0  0  0  0  0  0  0  0  0  0
  -29.0389   16.7782  -24.2868 C   0  0  0  0  0  0  0  0  0  0  0  0
  -29.8014   17.6371  -25.1361 C   0  0  0  0  0  0  0  0  0  0  0  0
  -29.2233   18.4023  -25.9422 O   0  0  0  0  0  0  0  0  0  0  0  0
  -31.1812   17.6824  -25.1268 O   0  0  0  0  0  0  0  0  0  0  0  0
  1  2  1  0
  2  3  1  0
  3  4  2  0
  4  5  1  0
  5  6  2  0
  6  7  1  0
  7  8  2  0
  8  9  1  0
  9 10  1  0
 10 11  1  0
 11 12  1  0
 11 13  1  0
  8 14  1  0
 14 15  1  0
 15 16  3  0
 14 17  2  0
  4 18  1  0
 18 19  1  0
 19 20  1  0
 20 21  2  0
 20 22  1  0
 19  2  2  0
 17  5  1  0
M  END
$$$$
