
     RDKit          3D

 17 19  0  0  0  0  0  0  0  0999 V2000
  -17.5709   44.9294  -20.7861 N   0  0  0  0  0  0  0  0  0  0  0  0
  -17.7635   43.8284  -21.1232 C   0  0  0  0  0  0  0  0  0  0  0  0
  -17.9852   42.4559  -21.5249 C   0  0  0  0  0  0  0  0  0  0  0  0
  -18.5477   41.5195  -20.6636 C   0  0  0  0  0  0  0  0  0  0  0  0
  -18.7680   40.2118  -21.0211 C   0  0  0  0  0  0  0  0  0  0  0  0
  -18.4318   39.7816  -22.2657 C   0  0  0  0  0  0  0  0  0  0  0  0
  -18.6373   38.3909  -22.7424 C   0  0  1  0  0  0  0  0  0  0  0  0
  -17.8463   37.4601  -21.8843 C   0  0  0  0  0  0  0  0  0  0  0  0
  -18.8011   36.4264  -21.3873 C   0  0  0  0  0  0  0  0  0  0  0  0
  -20.1392   36.9118  -21.8170 C   0  0  0  0  0  0  0  0  0  0  0  0
  -21.4899   36.6136  -21.7011 C   0  0  0  0  0  0  0  0  0  0  0  0
  -22.1255   37.5645  -22.4090 N   0  0  0  0  0  0  0  0  0  0  0  0
  -21.2490   38.4005  -22.9334 C   0  0  0  0  0  0  0  0  0  0  0  0
  -20.0217   38.0024  -22.5709 N   0  0  0  0  0  0  0  0  0  0  0  0
  -17.8688   40.6916  -23.1485 C   0  0  0  0  0  0  0  0  0  0  0  0
  -17.5037   40.3323  -24.4239 F   0  0  0  0  0  0  0  0  0  0  0  0
  -17.6502   42.0054  -22.7822 C   0  0  0  0  0  0  0  0  0  0  0  0
  1  2  3  0
  2  3  1  0
  3  4  2  0
  4  5  1  0
  5  6  2  0
  7  6  1  1
  7  8  1  0
  8  9  1  0
  9 10  1  0
 10 11  2  0
 11 12  1  0
 12 13  2  0
 13 14  1  0
  6 15  1  0
 15 16  1  0
 15 17  2  0
 17  3  1  0
 14  7  1  0
 14 10  1  0
M  END
$$$$
