
     RDKit          3D

 30 31  0  0  0  0  0  0  0  0999 V2000
  -18.2068   27.1112  -41.3662 S   0  0  0  0  0  0  0  0  0  0  0  0
  -19.4682   26.1022  -41.1272 C   0  0  0  0  0  0  0  0  0  0  0  0
  -20.2958   25.1795  -41.4394 N   0  0  0  0  0  0  0  0  0  0  0  0
  -20.5817   24.1905  -40.4446 C   0  0  0  0  0  0  0  0  0  0  0  0
  -21.6270   24.4173  -39.5736 C   0  0  0  0  0  0  0  0  0  0  0  0
  -21.8796   23.4641  -38.6127 C   0  0  0  0  0  0  0  0  0  0  0  0
  -21.1017   22.3053  -38.5254 C   0  0  0  0  0  0  0  0  0  0  0  0
  -20.0595   22.0934  -39.4059 C   0  0  0  0  0  0  0  0  0  0  0  0
  -19.2699   20.9045  -39.2640 N   0  0  0  0  0  0  0  0  0  0  0  0
  -19.8906   19.6347  -39.2830 C   0  0  0  0  0  0  0  0  0  0  0  0
  -21.5170   19.4988  -39.5579 S   0  0  0  0  0  0  0  0  0  0  0  0
  -19.1631   18.4497  -39.0667 N   0  0  0  0  0  0  0  0  0  0  0  0
  -17.9906   18.0963  -39.8767 C   0  0  0  0  0  0  0  0  0  0  0  0
  -16.8097   17.9820  -38.9267 C   0  0  0  0  0  0  0  0  0  0  0  0
  -15.6940   17.3369  -39.7250 C   0  0  0  0  0  0  0  0  0  0  0  0
  -15.2016   18.3132  -40.7450 C   0  0  0  0  0  0  0  0  0  0  0  0
  -14.3086   17.6632  -41.6673 N   0  0  0  0  0  0  0  0  0  0  0  0
  -13.6178   18.3522  -42.6936 C   0  0  0  0  0  0  0  0  0  0  0  0
  -14.3129   19.6442  -43.3975 S   0  0  0  0  0  0  0  0  0  0  0  0
  -12.3543   17.9247  -43.1153 N   0  0  0  0  0  0  0  0  0  0  0  0
  -11.2543   18.7849  -43.1197 C   0  0  0  0  0  0  0  0  0  0  0  0
  -10.9641   19.6222  -42.0793 C   0  0  0  0  0  0  0  0  0  0  0  0
   -9.8607   20.4686  -42.1256 C   0  0  0  0  0  0  0  0  0  0  0  0
   -9.0345   20.4828  -43.2184 C   0  0  0  0  0  0  0  0  0  0  0  0
   -9.3174   19.6432  -44.2716 C   0  0  0  0  0  0  0  0  0  0  0  0
   -8.4998   19.5990  -45.4280 N   0  0  0  0  0  0  0  0  0  0  0  0
   -8.1853   20.6661  -46.0406 C   0  0  0  0  0  0  0  0  0  0  0  0
   -7.3866   21.9010  -46.6958 S   0  0  0  0  0  0  0  0  0  0  0  0
  -10.4270   18.7997  -44.2136 C   0  0  0  0  0  0  0  0  0  0  0  0
  -19.8002   23.0424  -40.3695 C   0  0  0  0  0  0  0  0  0  0  0  0
  1  2  2  0
  2  3  2  0
  3  4  1  0
  4  5  2  0
  5  6  1  0
  6  7  2  0
  7  8  1  0
  8  9  1  0
  9 10  1  0
 10 11  2  0
 10 12  1  0
 12 13  1  0
 13 14  1  0
 14 15  1  0
 15 16  1  0
 16 17  1  0
 17 18  1  0
 18 19  2  0
 18 20  1  0
 20 21  1  0
 21 22  2  0
 22 23  1  0
 23 24  2  0
 24 25  1  0
 25 26  1  0
 26 27  2  0
 27 28  2  0
 25 29  2  0
  8 30  2  0
 30  4  1  0
 29 21  1  0
M  END
$$$$
