
     RDKit          3D

 28 31  0  0  0  0  0  0  0  0999 V2000
  -30.2015    6.3330  -28.7934 C   0  0  0  0  0  0  0  0  0  0  0  0
  -30.2340    4.8984  -28.8331 N   0  0  0  0  0  0  0  0  0  0  0  0
  -29.4306    4.2691  -27.8376 C   0  0  0  0  0  0  0  0  0  0  0  0
  -27.9611    4.1537  -28.1914 C   0  0  0  0  0  0  0  0  0  0  0  0
  -27.7731    3.7378  -29.5869 N   0  0  0  0  0  0  0  0  0  0  0  0
  -26.8945    2.6665  -29.9391 C   0  0  0  0  0  0  0  0  0  0  0  0
  -26.6195    2.3702  -31.2633 C   0  0  0  0  0  0  0  0  0  0  0  0
  -25.7573    1.3459  -31.5940 C   0  0  0  0  0  0  0  0  0  0  0  0
  -25.1281    0.5686  -30.6489 C   0  0  0  0  0  0  0  0  0  0  0  0
  -24.2236   -0.5059  -31.0194 C   0  0  0  0  0  0  0  0  0  0  0  0
  -24.7080   -1.6105  -31.6921 C   0  0  0  0  0  0  0  0  0  0  0  0
  -23.8209   -2.6145  -32.0272 C   0  0  0  0  0  0  0  0  0  0  0  0
  -22.5209   -2.5088  -31.7018 N   0  0  0  0  0  0  0  0  0  0  0  0
  -22.0600   -1.4319  -31.0484 C   0  0  0  0  0  0  0  0  0  0  0  0
  -22.8943   -0.3955  -30.6856 C   0  0  0  0  0  0  0  0  0  0  0  0
  -22.4632    0.8015  -29.9797 C   0  0  0  0  0  0  0  0  0  0  0  0
  -22.5758    2.0640  -30.5284 C   0  0  0  0  0  0  0  0  0  0  0  0
  -22.1654    3.1998  -29.8556 C   0  0  0  0  0  0  0  0  0  0  0  0
  -22.2795    4.4344  -30.4035 F   0  0  0  0  0  0  0  0  0  0  0  0
  -21.6184    3.1107  -28.5880 C   0  0  0  0  0  0  0  0  0  0  0  0
  -21.1942    4.2282  -27.8797 O   0  0  0  0  0  0  0  0  0  0  0  0
  -21.5074    1.8482  -28.0427 C   0  0  0  0  0  0  0  0  0  0  0  0
  -20.9700    1.7542  -26.7950 F   0  0  0  0  0  0  0  0  0  0  0  0
  -21.9176    0.7133  -28.7153 C   0  0  0  0  0  0  0  0  0  0  0  0
  -25.4055    0.8680  -29.3351 C   0  0  0  0  0  0  0  0  0  0  0  0
  -26.2720    1.8973  -28.9902 C   0  0  0  0  0  0  0  0  0  0  0  0
  -28.5298    4.5096  -30.5485 C   0  0  0  0  0  0  0  0  0  0  0  0
  -29.9978    4.4592  -30.1841 C   0  0  0  0  0  0  0  0  0  0  0  0
  1  2  1  0
  2  3  1  0
  3  4  1  0
  4  5  1  0
  5  6  1  0
  6  7  2  0
  7  8  1  0
  8  9  2  0
  9 10  1  0
 10 11  2  0
 11 12  1  0
 12 13  2  0
 13 14  1  0
 14 15  2  0
 15 16  1  0
 16 17  2  0
 17 18  1  0
 18 19  1  0
 18 20  2  0
 20 21  1  0
 20 22  1  0
 22 23  1  0
 22 24  2  0
  9 25  1  0
 25 26  2  0
  5 27  1  0
 27 28  1  0
 28  2  1  0
 26  6  1  0
 15 10  1  0
 24 16  1  0
M  END
$$$$
