
     RDKit          3D

 36 41  0  0  0  0  0  0  0  0999 V2000
  -30.2564   23.1728  -35.1303 C   0  0  0  0  0  0  0  0  0  0  0  0
  -29.6395   23.6534  -36.4495 C   0  0  0  0  0  0  0  0  0  0  0  0
  -28.6595   22.5601  -36.8435 C   0  0  0  0  0  0  0  0  0  0  0  0
  -30.7118   23.6757  -37.4075 C   0  0  0  0  0  0  0  0  0  0  0  0
  -31.6035   23.7140  -38.1964 N   0  0  0  0  0  0  0  0  0  0  0  0
  -28.9565   24.9488  -36.2615 C   0  0  0  0  0  0  0  0  0  0  0  0
  -28.6516   25.4570  -35.0163 C   0  0  0  0  0  0  0  0  0  0  0  0
  -28.0320   26.6763  -34.8558 C   0  0  0  0  0  0  0  0  0  0  0  0
  -27.6743   27.4765  -35.9426 C   0  0  0  0  0  0  0  0  0  0  0  0
  -27.1830   28.7885  -35.7805 N   0  0  0  0  0  0  0  0  0  0  0  0
  -28.2539   29.7955  -35.6816 C   0  0  0  0  0  0  0  0  0  0  0  0
  -29.4462   29.3626  -35.7406 O   0  0  0  0  0  0  0  0  0  0  0  0
  -27.9296   31.0924  -35.5362 O   0  0  0  0  0  0  0  0  0  0  0  0
  -26.6721   31.6117  -35.4575 C   0  0  0  0  0  0  0  0  0  0  0  0
  -25.5949   30.6222  -35.5618 C   0  0  0  0  0  0  0  0  0  0  0  0
  -24.2858   31.0430  -35.5098 C   0  0  0  0  0  0  0  0  0  0  0  0
  -23.2634   30.2234  -35.5958 N   0  0  0  0  0  0  0  0  0  0  0  0
  -23.4860   28.9096  -35.7421 C   0  0  0  0  0  0  0  0  0  0  0  0
  -22.4076   28.0483  -35.8279 C   0  0  0  0  0  0  0  0  0  0  0  0
  -22.6285   26.7105  -35.9721 C   0  0  0  0  0  0  0  0  0  0  0  0
  -23.8774   26.1549  -36.0387 C   0  0  0  0  0  0  0  0  0  0  0  0
  -24.0722   24.7148  -36.1775 C   0  0  0  0  0  0  0  0  0  0  0  0
  -23.1745   23.7868  -35.6897 C   0  0  0  0  0  0  0  0  0  0  0  0
  -23.3833   22.4564  -35.8469 N   0  0  0  0  0  0  0  0  0  0  0  0
  -24.4490   21.9321  -36.4722 C   0  0  0  0  0  0  0  0  0  0  0  0
  -24.6267   20.5671  -36.6111 C   0  0  0  0  0  0  0  0  0  0  0  0
  -25.7237   20.0313  -37.2510 C   0  0  0  0  0  0  0  0  0  0  0  0
  -26.6522   20.9393  -37.7555 C   0  0  0  0  0  0  0  0  0  0  0  0
  -26.4728   22.2964  -37.6162 C   0  0  0  0  0  0  0  0  0  0  0  0
  -25.3759   22.8395  -36.9763 C   0  0  0  0  0  0  0  0  0  0  0  0
  -25.1739   24.1963  -36.8216 C   0  0  0  0  0  0  0  0  0  0  0  0
  -24.9644   27.0441  -35.9512 C   0  0  0  0  0  0  0  0  0  0  0  0
  -24.7905   28.3826  -35.8070 C   0  0  0  0  0  0  0  0  0  0  0  0
  -25.8761   29.2644  -35.7140 C   0  0  0  0  0  0  0  0  0  0  0  0
  -27.9908   26.9442  -37.2044 C   0  0  0  0  0  0  0  0  0  0  0  0
  -28.6090   25.7247  -37.3537 C   0  0  0  0  0  0  0  0  0  0  0  0
  1  2  1  0
  2  3  1  0
  2  4  1  0
  4  5  3  0
  2  6  1  0
  6  7  2  0
  7  8  1  0
  8  9  2  0
  9 10  1  0
 10 11  1  0
 11 12  2  0
 11 13  1  0
 13 14  1  0
 14 15  1  0
 15 16  2  0
 16 17  1  0
 17 18  2  0
 18 19  1  0
 19 20  2  0
 20 21  1  0
 21 22  1  0
 22 23  2  0
 23 24  1  0
 24 25  2  0
 25 26  1  0
 26 27  2  0
 27 28  1  0
 28 29  2  0
 29 30  1  0
 30 31  2  0
 21 32  2  0
 32 33  1  0
 33 34  2  0
  9 35  1  0
 35 36  2  0
 36  6  1  0
 34 10  1  0
 34 15  1  0
 33 18  1  0
 31 22  1  0
 30 25  1  0
M  END
$$$$
