
     RDKit          3D

 26 29  0  0  0  0  0  0  0  0999 V2000
  -22.6482   22.0082  -30.1317 N   0  0  0  0  0  0  0  0  0  0  0  0
  -22.9863   20.9578  -31.0229 C   0  0  0  0  0  0  0  0  0  0  0  0
  -23.7358   21.1899  -32.0061 O   0  0  0  0  0  0  0  0  0  0  0  0
  -22.4787   19.6090  -30.8186 C   0  0  0  0  0  0  0  0  0  0  0  0
  -23.2957   18.5024  -31.0609 C   0  0  0  0  0  0  0  0  0  0  0  0
  -22.7416   17.2478  -30.8437 C   0  0  0  0  0  0  0  0  0  0  0  0
  -21.4526   17.0539  -30.4104 C   0  0  0  0  0  0  0  0  0  0  0  0
  -20.6947   15.9889  -30.1305 N   0  0  0  0  0  0  0  0  0  0  0  0
  -19.4854   16.4022  -29.7396 C   0  0  0  0  0  0  0  0  0  0  0  0
  -18.3648   15.5392  -29.3445 C   0  0  0  0  0  0  0  0  0  0  0  0
  -18.1637   14.3820  -30.0550 C   0  0  0  0  0  0  0  0  0  0  0  0
  -17.1086   13.5571  -29.6926 C   0  0  0  0  0  0  0  0  0  0  0  0
  -16.2641   13.8555  -28.6553 C   0  0  0  0  0  0  0  0  0  0  0  0
  -15.2248   12.9739  -28.3521 O   0  0  0  0  0  0  0  0  0  0  0  0
  -14.1497   12.8487  -29.2066 C   0  0  0  0  0  0  0  0  0  0  0  0
  -13.6871   13.8739  -30.0124 C   0  0  0  0  0  0  0  0  0  0  0  0
  -12.5871   13.6471  -30.8466 C   0  0  0  0  0  0  0  0  0  0  0  0
  -11.9782   12.4097  -30.8571 C   0  0  0  0  0  0  0  0  0  0  0  0
  -10.6070   12.1264  -31.8968 Cl  0  0  0  0  0  0  0  0  0  0  0  0
  -12.4220   11.3738  -30.0628 C   0  0  0  0  0  0  0  0  0  0  0  0
  -13.5081   11.6176  -29.2472 C   0  0  0  0  0  0  0  0  0  0  0  0
  -16.4890   15.0195  -27.9621 C   0  0  0  0  0  0  0  0  0  0  0  0
  -17.5375   15.8711  -28.2974 C   0  0  0  0  0  0  0  0  0  0  0  0
  -19.4795   17.7407  -29.7729 N   0  0  0  0  0  0  0  0  0  0  0  0
  -20.6778   18.1778  -30.1826 C   0  0  0  0  0  0  0  0  0  0  0  0
  -21.1879   19.4521  -30.3856 C   0  0  0  0  0  0  0  0  0  0  0  0
  1  2  1  0
  2  3  2  0
  2  4  1  0
  4  5  2  0
  5  6  1  0
  6  7  2  0
  7  8  1  0
  8  9  1  0
  9 10  1  0
 10 11  2  0
 11 12  1  0
 12 13  2  0
 13 14  1  0
 14 15  1  0
 15 16  2  0
 16 17  1  0
 17 18  2  0
 18 19  1  0
 18 20  1  0
 20 21  2  0
 13 22  1  0
 22 23  2  0
  9 24  2  0
 24 25  1  0
 25 26  2  0
 26  4  1  0
 25  7  1  0
 23 10  1  0
 21 15  1  0
M  END
$$$$
