
     RDKit          3D

 27 28  0  0  0  0  0  0  0  0999 V2000
  -17.2964   18.8108   -8.0653 C   0  0  0  0  0  0  0  0  0  0  0  0
  -15.8926   18.8079   -8.1614 O   0  0  0  0  0  0  0  0  0  0  0  0
  -15.2801   19.1811   -9.3479 C   0  0  0  0  0  0  0  0  0  0  0  0
  -15.6943   18.6650  -10.5527 C   0  0  0  0  0  0  0  0  0  0  0  0
  -15.0611   19.0586  -11.7066 C   0  0  0  0  0  0  0  0  0  0  0  0
  -14.0229   19.9585  -11.6637 C   0  0  0  0  0  0  0  0  0  0  0  0
  -13.5760   20.5012  -10.4718 C   0  0  0  0  0  0  0  0  0  0  0  0
  -12.4817   21.4525  -10.3858 C   0  0  0  0  0  0  0  0  0  0  0  0
  -11.7281   21.3486   -9.3760 O   0  0  0  0  0  0  0  0  0  0  0  0
  -12.2223   22.4687  -11.3550 N   0  0  0  0  0  0  0  0  0  0  0  0
  -10.9445   23.0984  -11.2391 N   0  0  0  0  0  0  0  0  0  0  0  0
   -9.8705   22.2295  -10.9777 C   0  0  0  0  0  0  0  0  0  0  0  0
   -9.8069   21.0945  -11.5852 O   0  0  0  0  0  0  0  0  0  0  0  0
   -8.7661   22.4675  -10.0676 C   0  0  0  0  0  0  0  0  0  0  0  0
   -7.4950   22.8149  -10.4416 C   0  0  0  0  0  0  0  0  0  0  0  0
   -6.4941   23.0370   -9.5126 C   0  0  0  0  0  0  0  0  0  0  0  0
   -5.1114   23.4182   -9.8729 C   0  0  0  0  0  0  0  0  0  0  0  0
   -6.7987   22.8999   -8.1576 C   0  0  0  0  0  0  0  0  0  0  0  0
   -8.0636   22.5534   -7.7523 C   0  0  0  0  0  0  0  0  0  0  0  0
   -8.3669   22.4098   -6.3156 C   0  0  0  0  0  0  0  0  0  0  0  0
   -9.0244   22.3438   -8.7118 C   0  0  0  0  0  0  0  0  0  0  0  0
  -10.8986   24.5060  -11.3881 C   0  0  0  0  0  0  0  0  0  0  0  0
  -10.2681   25.2889  -10.2954 C   0  0  0  0  0  0  0  0  0  0  0  0
  -10.1685   24.8963  -12.6867 C   0  0  0  0  0  0  0  0  0  0  0  0
  -12.3348   25.0074  -11.6354 C   0  0  0  0  0  0  0  0  0  0  0  0
  -14.2260   20.0934   -9.3190 C   0  0  0  0  0  0  0  0  0  0  0  0
  -13.8151   20.6153   -8.0056 C   0  0  0  0  0  0  0  0  0  0  0  0
  1  2  1  0
  2  3  1  0
  3  4  2  0
  4  5  1  0
  5  6  2  0
  6  7  1  0
  7  8  1  0
  8  9  2  0
  8 10  1  0
 10 11  1  0
 11 12  1  0
 12 13  2  0
 12 14  1  0
 14 15  2  0
 15 16  1  0
 16 17  1  0
 16 18  2  0
 18 19  1  0
 19 20  1  0
 19 21  2  0
 11 22  1  0
 22 23  1  0
 22 24  1  0
 22 25  1  0
  7 26  2  0
 26 27  1  0
 26  3  1  0
 21 14  1  0
M  END
$$$$
