
     RDKit          3D

 33 36  0  0  0  0  0  0  0  0999 V2000
  -25.3732   37.9972  -24.9101 C   0  0  0  0  0  0  0  0  0  0  0  0
  -24.4690   36.8694  -25.3231 C   0  0  0  0  0  0  0  0  0  0  0  0
  -23.0119   37.3517  -25.4823 C   0  0  0  0  0  0  0  0  0  0  0  0
  -22.1269   35.9535  -26.1178 S   0  0  0  0  0  6  0  0  0  0  0  0
  -22.6663   34.6869  -25.4921 O   0  0  0  0  0  0  0  0  0  0  0  0
  -22.4517   35.9146  -27.6087 O   0  0  0  0  0  0  0  0  0  0  0  0
  -20.4425   36.0790  -25.9491 N   0  0  0  0  0  0  0  0  0  0  0  0
  -19.7086   36.2568  -24.7519 C   0  0  0  0  0  0  0  0  0  0  0  0
  -19.1555   35.2397  -24.0225 C   0  0  0  0  0  0  0  0  0  0  0  0
  -18.4710   35.5383  -22.8412 C   0  0  0  0  0  0  0  0  0  0  0  0
  -18.3169   36.8120  -22.3591 C   0  0  0  0  0  0  0  0  0  0  0  0
  -17.6398   37.0440  -21.2019 F   0  0  0  0  0  0  0  0  0  0  0  0
  -18.8803   37.8555  -23.1004 C   0  0  0  0  0  0  0  0  0  0  0  0
  -18.7261   39.2014  -22.5730 C   0  0  0  0  0  0  0  0  0  0  0  0
  -17.9767   40.0221  -23.2049 O   0  0  0  0  0  0  0  0  0  0  0  0
  -19.3770   39.6660  -21.3676 C   0  0  0  0  0  0  0  0  0  0  0  0
  -20.3690   39.0953  -20.6021 C   0  0  0  0  0  0  0  0  0  0  0  0
  -20.6873   39.9062  -19.5775 N   0  0  0  0  0  0  0  0  0  0  0  0
  -19.9306   41.0186  -19.6315 C   0  0  0  0  0  0  0  0  0  0  0  0
  -19.8479   42.1342  -18.8596 N   0  0  0  0  0  0  0  0  0  0  0  0
  -18.9621   43.0906  -19.1943 C   0  0  0  0  0  0  0  0  0  0  0  0
  -18.1328   42.9847  -20.2912 C   0  0  0  0  0  0  0  0  0  0  0  0
  -17.1823   44.0374  -20.6300 C   0  0  0  0  0  0  0  0  0  0  0  0
  -17.6292   45.3007  -20.9481 C   0  0  0  0  0  0  0  0  0  0  0  0
  -16.7661   46.3310  -21.2739 C   0  0  0  0  0  0  0  0  0  0  0  0
  -15.3915   46.1209  -21.2910 C   0  0  0  0  0  0  0  0  0  0  0  0
  -14.3015   47.4275  -21.7036 Cl  0  0  0  0  0  0  0  0  0  0  0  0
  -14.9419   44.8597  -20.9735 C   0  0  0  0  0  0  0  0  0  0  0  0
  -15.8186   43.8258  -20.6462 C   0  0  0  0  0  0  0  0  0  0  0  0
  -18.1988   41.8771  -21.0773 C   0  0  0  0  0  0  0  0  0  0  0  0
  -19.1155   40.8819  -20.7353 C   0  0  0  0  0  0  0  0  0  0  0  0
  -19.5550   37.5602  -24.2641 C   0  0  0  0  0  0  0  0  0  0  0  0
  -20.1288   38.5476  -24.9946 F   0  0  0  0  0  0  0  0  0  0  0  0
  1  2  1  0
  2  3  1  0
  3  4  1  0
  4  5  2  0
  4  6  2  0
  4  7  1  0
  7  8  1  0
  8  9  2  0
  9 10  1  0
 10 11  2  0
 11 12  1  0
 11 13  1  0
 13 14  1  0
 14 15  2  0
 14 16  1  0
 16 17  2  0
 17 18  1  0
 18 19  1  0
 19 20  2  0
 20 21  1  0
 21 22  2  0
 22 23  1  0
 23 24  2  0
 24 25  1  0
 25 26  2  0
 26 27  1  0
 26 28  1  0
 28 29  2  0
 22 30  1  0
 30 31  2  0
 13 32  2  0
 32 33  1  0
 32  8  1  0
 31 16  1  0
 31 19  1  0
 29 23  1  0
M  END
$$$$
