
     RDKit          3D

 23 25  0  0  0  0  0  0  0  0999 V2000
  -31.3932   12.7446  -17.7029 C   0  0  0  0  0  0  0  0  0  0  0  0
  -32.5760   11.9923  -18.2190 C   0  0  0  0  0  0  0  0  0  0  0  0
  -33.3289   11.1012  -17.5100 N   0  0  0  0  0  0  0  0  0  0  0  0
  -34.3107   10.6276  -18.2691 C   0  0  0  0  0  0  0  0  0  0  0  0
  -34.2002   11.2152  -19.4906 C   0  0  0  0  0  0  0  0  0  0  0  0
  -33.1242   12.0517  -19.4363 N   0  0  0  0  0  0  0  0  0  0  0  0
  -32.6425   12.8602  -20.5183 C   0  0  0  0  0  0  0  0  0  0  0  0
  -31.6744   12.1609  -21.4443 C   0  0  0  0  0  0  0  0  0  0  0  0
  -31.2242   13.0762  -22.5260 C   0  0  0  0  0  0  0  0  0  0  0  0
  -29.7849   13.1624  -22.8089 C   0  0  0  0  0  0  0  0  0  0  0  0
  -28.8548   12.8564  -21.7259 C   0  0  0  0  0  0  0  0  0  0  0  0
  -29.2803   12.0522  -20.6917 C   0  0  0  0  0  0  0  0  0  0  0  0
  -28.1869   11.9416  -19.8375 C   0  0  0  0  0  0  0  0  0  0  0  0
  -28.0447   11.2626  -18.6583 C   0  0  0  0  0  0  0  0  0  0  0  0
  -26.8262   11.3229  -18.0046 C   0  0  0  0  0  0  0  0  0  0  0  0
  -25.7787   12.0581  -18.5417 C   0  0  0  0  0  0  0  0  0  0  0  0
  -25.9492   12.7413  -19.7454 C   0  0  0  0  0  0  0  0  0  0  0  0
  -27.1735   12.6797  -20.4003 C   0  0  0  0  0  0  0  0  0  0  0  0
  -27.5891   13.2327  -21.5494 N   0  0  0  0  0  0  0  0  0  0  0  0
  -26.7635   14.0875  -22.4168 C   0  0  0  0  0  0  0  0  0  0  0  0
  -30.6344   11.5174  -20.6649 C   0  0  0  0  0  0  0  0  0  0  0  0
  -30.9036   10.5056  -19.9732 O   0  0  0  0  0  0  0  0  0  0  0  0
  -30.6050   12.4254  -19.9321 Cl  0  0  0  0  0  0  0  0  0  0  0  0
  1  2  1  0
  2  3  2  0
  3  4  1  0
  4  5  2  0
  5  6  1  0
  6  7  1  0
  7  8  1  0
  8  9  1  0
  9 10  1  0
 10 11  1  0
 11 12  2  0
 12 13  1  0
 13 14  2  0
 14 15  1  0
 15 16  2  0
 16 17  1  0
 17 18  2  0
 18 19  1  0
 19 20  1  0
 12 21  1  0
 21 22  2  0
  6  2  1  0
 21  8  1  0
 19 11  1  0
 18 13  1  0
M  END
$$$$
