
     RDKit          3D

 28 29  0  0  0  0  0  0  0  0999 V2000
  -19.8071   41.1350  -26.1463 C   0  0  0  0  0  0  0  0  0  0  0  0
  -20.0061   40.0754  -25.2227 O   0  0  0  0  0  0  0  0  0  0  0  0
  -21.1102   40.0265  -24.3961 C   0  0  0  0  0  0  0  0  0  0  0  0
  -22.1471   39.5503  -24.9105 O   0  0  0  0  0  0  0  0  0  0  0  0
  -21.0893   40.5023  -22.9853 C   0  0  0  0  0  0  0  0  0  0  0  0
  -22.0407   41.2872  -22.5371 C   0  0  0  0  0  0  0  0  0  0  0  0
  -23.1342   41.6736  -23.5144 C   0  0  0  0  0  0  0  0  0  0  0  0
  -22.1078   41.7725  -21.2066 N   0  0  0  0  0  0  0  0  0  0  0  0
  -21.0962   41.4005  -20.2854 C   0  0  0  0  0  0  0  0  0  0  0  0
  -21.1275   41.8851  -18.8722 C   0  0  0  0  0  0  0  0  0  0  0  0
  -20.1346   40.6241  -20.6956 C   0  0  0  0  0  0  0  0  0  0  0  0
  -19.0642   40.2156  -19.7550 C   0  0  0  0  0  0  0  0  0  0  0  0
  -19.3709   39.4464  -18.7968 O   0  0  0  0  0  0  0  0  0  0  0  0
  -17.7715   40.6378  -19.8873 O   0  0  0  0  0  0  0  0  0  0  0  0
  -17.1804   41.5518  -18.9658 C   0  0  0  0  0  0  0  0  0  0  0  0
  -16.6601   42.7157  -19.7891 C   0  0  0  0  0  0  0  0  0  0  0  0
  -15.5135   42.2667  -20.6407 C   0  0  0  0  0  0  0  0  0  0  0  0
  -16.2074   43.7987  -18.8442 C   0  0  0  0  0  0  0  0  0  0  0  0
  -19.9785   40.0915  -22.0955 C   0  0  0  0  0  0  0  0  0  0  0  0
  -19.9273   38.5968  -21.9961 C   0  0  0  0  0  0  0  0  0  0  0  0
  -21.1449   37.9906  -21.7130 C   0  0  0  0  0  0  0  0  0  0  0  0
  -21.2533   36.6298  -21.6433 C   0  0  0  0  0  0  0  0  0  0  0  0
  -20.1127   35.8938  -21.8641 C   0  0  0  0  0  0  0  0  0  0  0  0
  -18.9237   36.4955  -22.1401 C   0  0  0  0  0  0  0  0  0  0  0  0
  -18.7823   37.9014  -22.2176 C   0  0  0  0  0  0  0  0  0  0  0  0
  -17.5129   38.4554  -22.4851 N   0  0  0  0  0  4  0  0  0  0  0  0
  -16.8802   37.8860  -23.4363 O   0  0  0  0  0  0  0  0  0  0  0  0
  -16.8772   39.4881  -21.8934 O   0  0  0  0  0  1  0  0  0  0  0  0
  1  2  1  0
  2  3  1  0
  3  4  2  0
  3  5  1  0
  5  6  2  0
  6  7  1  0
  6  8  1  0
  8  9  1  0
  9 10  1  0
  9 11  2  0
 11 12  1  0
 12 13  2  0
 12 14  1  0
 14 15  1  0
 15 16  1  0
 16 17  1  0
 16 18  1  0
 11 19  1  0
 19 20  1  0
 20 21  2  0
 21 22  1  0
 22 23  2  0
 23 24  1  0
 24 25  2  0
 25 26  1  0
 26 27  2  0
 26 28  1  0
 19  5  1  0
 25 20  1  0
M  CHG  2  26   1  28  -1
M  END
$$$$
