
     RDKit          3D

 51 57  0  0  0  0  0  0  0  0999 V2000
  -22.2500   42.1004  -24.4712 C   0  0  0  0  0  0  0  0  0  0  0  0
  -21.1830   41.2009  -24.6728 N   0  0  0  0  0  0  0  0  0  0  0  0
  -21.3508   39.8368  -24.3782 C   0  0  1  0  0  0  0  0  0  0  0  0
  -21.3013   39.5387  -22.8844 C   0  0  0  0  0  0  0  0  0  0  0  0
  -21.3188   38.0885  -22.5896 C   0  0  0  0  0  0  0  0  0  0  0  0
  -20.1991   37.3304  -22.8478 C   0  0  0  0  0  0  0  0  0  0  0  0
  -20.1532   35.9741  -22.6030 C   0  0  0  0  0  0  0  0  0  0  0  0
  -21.2504   35.3580  -22.0882 C   0  0  0  0  0  0  0  0  0  0  0  0
  -21.1681   33.9889  -21.8537 O   0  0  0  0  0  0  0  0  0  0  0  0
  -20.8941   33.4858  -20.2385 S   0  0  0  0  0  6  0  0  0  0  0  0
  -21.9123   34.1019  -19.3472 O   0  0  0  0  0  0  0  0  0  0  0  0
  -21.0310   31.9976  -20.1701 O   0  0  0  0  0  0  0  0  0  0  0  0
  -19.3073   34.0143  -19.7076 C   0  0  0  0  0  0  0  0  0  0  0  0
  -19.1408   35.1098  -18.9008 C   0  0  0  0  0  0  0  0  0  0  0  0
  -17.8823   35.4991  -18.5013 C   0  0  0  0  0  0  0  0  0  0  0  0
  -16.7548   34.8031  -18.8977 C   0  0  0  0  0  0  0  0  0  0  0  0
  -16.9094   33.7097  -19.7016 C   0  0  0  0  0  0  0  0  0  0  0  0
  -15.8094   32.9922  -20.1166 C   0  0  0  0  0  0  0  0  0  0  0  0
  -15.9740   31.9220  -20.9052 N   0  0  0  0  0  0  0  0  0  0  0  0
  -17.2181   31.5379  -21.2996 C   0  0  0  0  0  0  0  0  0  0  0  0
  -18.3382   32.2200  -20.9123 C   0  0  0  0  0  0  0  0  0  0  0  0
  -18.1895   33.3246  -20.1003 C   0  0  0  0  0  0  0  0  0  0  0  0
  -22.3862   36.0858  -21.8186 C   0  0  0  0  0  0  0  0  0  0  0  0
  -22.4250   37.4623  -22.0699 C   0  0  0  0  0  0  0  0  0  0  0  0
  -22.6694   39.3690  -24.8761 C   0  0  0  0  0  0  0  0  0  0  0  0
  -23.6837   39.7547  -24.1894 O   0  0  0  0  0  0  0  0  0  0  0  0
  -22.8905   38.5666  -26.0018 N   0  0  0  0  0  0  0  0  0  0  0  0
  -24.2660   38.2131  -26.3505 C   0  0  0  0  0  0  0  0  0  0  0  0
  -24.3654   36.7167  -26.3585 C   0  0  0  0  0  0  0  0  0  0  0  0
  -23.2518   36.0318  -26.9702 N   0  0  0  0  0  0  0  0  0  0  0  0
  -23.5796   34.7729  -27.6005 C   0  0  0  0  0  0  0  0  0  0  0  0
  -22.6408   33.9239  -28.1242 C   0  0  0  0  0  0  0  0  0  0  0  0
  -22.9875   32.7022  -28.7137 C   0  0  0  0  0  0  0  0  0  0  0  0
  -24.2945   32.3268  -28.7785 C   0  0  0  0  0  0  0  0  0  0  0  0
  -25.2626   33.1357  -28.2720 C   0  0  0  0  0  0  0  0  0  0  0  0
  -24.9015   34.3414  -27.6922 C   0  0  0  0  0  0  0  0  0  0  0  0
  -21.9235   36.5384  -26.9301 C   0  0  0  0  0  0  0  0  0  0  0  0
  -21.8918   38.0448  -26.9011 C   0  0  0  0  0  0  0  0  0  0  0  0
  -19.6623   41.8046  -25.0214 S   0  0  0  0  0  6  0  0  0  0  0  0
  -18.9398   40.7571  -25.8662 O   0  0  0  0  0  0  0  0  0  0  0  0
  -19.6920   43.0257  -25.9183 O   0  0  0  0  0  0  0  0  0  0  0  0
  -18.6386   42.0937  -23.6245 C   0  0  0  0  0  0  0  0  0  0  0  0
  -17.3602   41.5319  -23.5216 C   0  0  0  0  0  0  0  0  0  0  0  0
  -16.5261   41.7134  -22.4661 C   0  0  0  0  0  0  0  0  0  0  0  0
  -16.9354   42.4957  -21.4126 C   0  0  0  0  0  0  0  0  0  0  0  0
  -18.1925   43.0770  -21.4622 C   0  0  0  0  0  0  0  0  0  0  0  0
  -18.6511   43.8738  -20.4299 C   0  0  0  0  0  0  0  0  0  0  0  0
  -19.8673   44.4419  -20.4724 N   0  0  0  0  0  0  0  0  0  0  0  0
  -20.6865   44.2621  -21.5129 C   0  0  0  0  0  0  0  0  0  0  0  0
  -20.2440   43.4678  -22.5544 C   0  0  0  0  0  0  0  0  0  0  0  0
  -19.0141   42.8712  -22.5507 C   0  0  0  0  0  0  0  0  0  0  0  0
  1  2  1  0
  2  3  1  0
  3  4  1  1
  4  5  1  0
  5  6  2  0
  6  7  1  0
  7  8  2  0
  8  9  1  0
  9 10  1  0
 10 11  2  0
 10 12  2  0
 10 13  1  0
 13 14  2  0
 14 15  1  0
 15 16  2  0
 16 17  1  0
 17 18  2  0
 18 19  1  0
 19 20  2  0
 20 21  1  0
 21 22  2  0
  8 23  1  0
 23 24  2  0
  3 25  1  0
 25 26  2  0
 25 27  1  0
 27 28  1  0
 28 29  1  0
 29 30  1  0
 30 31  1  0
 31 32  2  0
 32 33  1  0
 33 34  2  0
 34 35  1  0
 35 36  2  0
 30 37  1  0
 37 38  1  0
  2 39  1  0
 39 40  2  0
 39 41  2  0
 39 42  1  0
 42 43  2  0
 43 44  1  0
 44 45  2  0
 45 46  1  0
 46 47  2  0
 47 48  1  0
 48 49  2  0
 49 50  1  0
 50 51  2  0
 24  5  1  0
 38 27  1  0
 51 42  1  0
 22 13  1  0
 36 31  1  0
 51 46  1  0
 22 17  1  0
M  END
$$$$
