
     RDKit          3D

 30 33  0  0  0  0  0  0  0  0999 V2000
  -19.0424   18.6551  -41.6175 C   0  0  0  0  0  0  0  0  0  0  0  0
  -18.8250   19.6500  -40.6370 O   0  0  0  0  0  0  0  0  0  0  0  0
  -19.4882   19.6684  -39.4330 C   0  0  0  0  0  0  0  0  0  0  0  0
  -20.7910   20.0899  -39.4138 C   0  0  0  0  0  0  0  0  0  0  0  0
  -21.5365   20.1397  -38.2378 C   0  0  0  0  0  0  0  0  0  0  0  0
  -22.8834   20.5941  -38.3321 C   0  0  0  0  0  0  0  0  0  0  0  0
  -23.2321   21.7935  -38.3038 N   0  0  0  0  0  0  0  0  0  0  0  0
  -24.4355   22.3641  -38.5900 N   0  0  0  0  0  0  0  0  0  0  0  0
  -24.9016   23.5622  -37.9467 C   0  0  0  0  0  0  0  0  0  0  0  0
  -23.9978   24.3055  -37.4732 O   0  0  0  0  0  0  0  0  0  0  0  0
  -26.2820   23.9582  -37.8105 C   0  0  0  0  0  0  0  0  0  0  0  0
  -26.6480   25.1882  -37.3392 C   0  0  0  0  0  0  0  0  0  0  0  0
  -27.9618   25.5646  -37.2103 C   0  0  0  0  0  0  0  0  0  0  0  0
  -28.9579   24.7158  -37.5513 C   0  0  0  0  0  0  0  0  0  0  0  0
  -28.6374   23.4569  -38.0343 C   0  0  0  0  0  0  0  0  0  0  0  0
  -27.3173   23.0843  -38.1618 C   0  0  0  0  0  0  0  0  0  0  0  0
  -29.8589   22.8403  -38.2883 O   0  0  0  0  0  0  0  0  0  0  0  0
  -30.8843   23.5472  -37.5863 C   0  0  0  0  0  0  0  0  0  0  0  0
  -30.3530   24.8634  -37.5118 O   0  0  0  0  0  0  0  0  0  0  0  0
  -20.9019   19.7481  -37.1122 C   0  0  0  0  0  0  0  0  0  0  0  0
  -19.5624   19.3138  -37.1261 C   0  0  0  0  0  0  0  0  0  0  0  0
  -18.8550   19.2731  -38.2823 C   0  0  0  0  0  0  0  0  0  0  0  0
  -17.5251   18.8517  -38.3551 O   0  0  0  0  0  0  0  0  0  0  0  0
  -16.4756   19.7208  -37.9544 C   0  0  0  0  0  0  0  0  0  0  0  0
  -15.1933   18.9830  -38.0409 C   0  0  0  0  0  0  0  0  0  0  0  0
  -14.8276   18.0559  -37.0893 C   0  0  0  0  0  0  0  0  0  0  0  0
  -13.6316   17.4138  -37.2326 C   0  0  0  0  0  0  0  0  0  0  0  0
  -12.7710   17.6520  -38.2897 C   0  0  0  0  0  0  0  0  0  0  0  0
  -13.1551   18.5763  -39.2219 C   0  0  0  0  0  0  0  0  0  0  0  0
  -14.3480   19.2481  -39.1217 C   0  0  0  0  0  0  0  0  0  0  0  0
  1  2  1  0
  2  3  1  0
  3  4  2  0
  4  5  1  0
  5  6  1  0
  6  7  2  0
  7  8  1  0
  8  9  1  0
  9 10  2  0
  9 11  1  0
 11 12  2  0
 12 13  1  0
 13 14  2  0
 14 15  1  0
 15 16  2  0
 15 17  1  0
 17 18  1  0
 18 19  1  0
  5 20  2  0
 20 21  1  0
 21 22  2  0
 22 23  1  0
 23 24  1  0
 24 25  1  0
 25 26  2  0
 26 27  1  0
 27 28  2  0
 28 29  1  0
 29 30  2  0
 22  3  1  0
 30 25  1  0
 16 11  1  0
 19 14  1  0
M  END
$$$$
