
     RDKit          3D

 28 30  0  0  0  0  0  0  0  0999 V2000
  -32.7047    8.4443  -17.7350 C   0  0  0  0  0  0  0  0  0  0  0  0
  -32.1501    8.1990  -19.4217 S   0  0  0  0  0  4  0  0  0  0  0  0
  -31.1280    7.0603  -19.5048 O   0  0  0  0  0  0  0  0  0  0  0  0
  -31.3218    9.6702  -19.9451 C   0  0  0  0  0  0  0  0  0  0  0  0
  -32.0151   10.6903  -20.5507 C   0  0  0  0  0  0  0  0  0  0  0  0
  -31.3500   11.8138  -20.9442 C   0  0  0  0  0  0  0  0  0  0  0  0
  -29.9820   11.9929  -20.7655 C   0  0  0  0  0  0  0  0  0  0  0  0
  -29.3058   13.2026  -21.1962 C   0  0  0  0  0  0  0  0  0  0  0  0
  -29.8841   14.2515  -21.7888 N   0  0  0  0  0  0  0  0  0  0  0  0
  -28.9420   15.1715  -22.0350 C   0  0  0  0  0  0  0  0  0  0  0  0
  -29.0640   16.4772  -22.6586 C   0  0  0  0  0  0  0  0  0  0  0  0
  -28.7913   17.6798  -22.0476 C   0  0  0  0  0  0  0  0  0  0  0  0
  -28.9299   18.8853  -22.7012 C   0  0  0  0  0  0  0  0  0  0  0  0
  -29.3533   18.9327  -24.0115 C   0  0  0  0  0  0  0  0  0  0  0  0
  -29.4889   20.1274  -24.6531 F   0  0  0  0  0  0  0  0  0  0  0  0
  -29.6308   17.7385  -24.6388 C   0  0  0  0  0  0  0  0  0  0  0  0
  -29.4858   16.5430  -23.9673 C   0  0  0  0  0  0  0  0  0  0  0  0
  -27.7453   14.6656  -21.5760 C   0  0  0  0  0  0  0  0  0  0  0  0
  -26.4408   15.2853  -21.6168 C   0  0  0  0  0  0  0  0  0  0  0  0
  -25.8300   15.5820  -22.8208 C   0  0  0  0  0  0  0  0  0  0  0  0
  -24.5870   16.1728  -22.7986 C   0  0  0  0  0  0  0  0  0  0  0  0
  -23.9414   16.4740  -21.6604 N   0  0  0  0  0  0  0  0  0  0  0  0
  -24.5018   16.2014  -20.4707 C   0  0  0  0  0  0  0  0  0  0  0  0
  -25.7507   15.6074  -20.4656 C   0  0  0  0  0  0  0  0  0  0  0  0
  -27.9961   13.4477  -21.0619 N   0  0  0  0  0  0  0  0  0  0  0  0
  -29.3157   10.9518  -20.1554 C   0  0  0  0  0  0  0  0  0  0  0  0
  -29.9654    9.8054  -19.7483 C   0  0  0  0  0  0  0  0  0  0  0  0
  -29.2776   13.4109  -20.8761 Cl  0  0  0  0  0  0  0  0  0  0  0  0
  1  2  1  0
  2  3  2  0
  2  4  1  0
  4  5  2  0
  5  6  1  0
  6  7  2  0
  7  8  1  0
  8  9  2  0
  9 10  1  0
 10 11  1  0
 11 12  2  0
 12 13  1  0
 13 14  2  0
 14 15  1  0
 14 16  1  0
 16 17  2  0
 10 18  2  0
 18 19  1  0
 19 20  2  0
 20 21  1  0
 21 22  2  0
 22 23  1  0
 23 24  2  0
 18 25  1  0
  7 26  1  0
 26 27  2  0
 27  4  1  0
 25  8  1  0
 17 11  1  0
 24 19  1  0
M  END
$$$$
