
     RDKit          3D

 44 47  0  0  0  0  0  0  0  0999 V2000
  -17.0805   17.9637  -34.6977 C   0  0  0  0  0  0  0  0  0  0  0  0
  -18.5659   18.1067  -34.9131 C   0  0  1  0  0  0  0  0  0  0  0  0
  -18.8554   18.1171  -36.2373 O   0  0  0  0  0  0  0  0  0  0  0  0
  -18.7861   16.8512  -36.7762 C   0  0  2  0  0  0  0  0  0  0  0  0
  -18.8127   16.8936  -38.1757 O   0  0  0  0  0  0  0  0  0  0  0  0
  -18.3114   18.0673  -38.6552 C   0  0  2  0  0  0  0  0  0  0  0  0
  -19.3352   19.0247  -39.2238 C   0  0  1  0  0  0  0  0  0  0  0  0
  -20.6019   19.0073  -38.4212 C   0  0  0  0  0  0  0  0  0  0  0  0
  -21.1739   20.2524  -38.2492 O   0  0  0  0  0  0  0  0  0  0  0  0
  -18.7199   20.2685  -39.2821 O   0  0  0  0  0  0  0  0  0  0  0  0
  -17.8479   20.2803  -40.3696 C   0  0  2  0  0  0  0  0  0  0  0  0
  -18.6046   20.1540  -41.5403 O   0  0  0  0  0  0  0  0  0  0  0  0
  -18.1823   21.0010  -42.5343 C   0  0  2  0  0  0  0  0  0  0  0  0
  -19.3401   21.9109  -42.9900 C   0  0  1  0  0  0  0  0  0  0  0  0
  -19.9511   22.6598  -41.8465 C   0  0  0  0  0  0  0  0  0  0  0  0
  -19.3328   23.8834  -41.6045 O   0  0  0  0  0  0  0  0  0  0  0  0
  -18.8140   22.8559  -43.8730 O   0  0  0  0  0  0  0  0  0  0  0  0
  -18.4216   22.2491  -45.0621 C   0  0  0  0  0  0  0  0  0  0  0  0
  -18.1623   23.1854  -46.0460 O   0  0  0  0  0  0  0  0  0  0  0  0
  -17.2121   21.3969  -44.7193 C   0  0  2  0  0  0  0  0  0  0  0  0
  -16.5868   20.8744  -45.8245 O   0  0  0  0  0  0  0  0  0  0  0  0
  -17.7365   20.2961  -43.7840 C   0  0  1  0  0  0  0  0  0  0  0  0
  -16.7765   19.3377  -43.6222 O   0  0  0  0  0  0  0  0  0  0  0  0
  -16.7734   19.2593  -40.2058 C   0  0  2  0  0  0  0  0  0  0  0  0
  -15.9910   19.1962  -41.3254 O   0  0  0  0  0  0  0  0  0  0  0  0
  -17.2729   17.8959  -39.7612 C   0  0  1  0  0  0  0  0  0  0  0  0
  -16.1687   17.1916  -39.2796 O   0  0  0  0  0  0  0  0  0  0  0  0
  -19.9478   16.0627  -36.2794 C   0  0  2  0  0  0  0  0  0  0  0  0
  -21.0475   16.3302  -37.1247 O   0  0  0  0  0  0  0  0  0  0  0  0
  -20.3045   16.2964  -34.8618 C   0  0  1  0  0  0  0  0  0  0  0  0
  -20.5415   15.0531  -34.2752 O   0  0  0  0  0  0  0  0  0  0  0  0
  -19.3227   17.1148  -34.0799 C   0  0  2  0  0  0  0  0  0  0  0  0
  -19.9991   17.8161  -33.0121 N   0  0  0  0  0  0  0  0  0  0  0  0
  -19.3820   17.7272  -31.7316 C   0  0  1  0  0  0  0  0  0  0  0  0
  -18.9401   19.0034  -31.1552 C   0  0  0  0  0  0  0  0  0  0  0  0
  -19.5110   19.5768  -30.1090 C   0  0  0  0  0  0  0  0  0  0  0  0
  -18.9772   20.8916  -29.5942 C   0  0  0  0  0  0  0  0  0  0  0  0
  -19.2842   21.8206  -30.6115 O   0  0  0  0  0  0  0  0  0  0  0  0
  -20.6762   19.0121  -29.3728 C   0  0  1  0  0  0  0  0  0  0  0  0
  -21.5357   20.0707  -29.0738 O   0  0  0  0  0  0  0  0  0  0  0  0
  -21.4018   18.0704  -30.2997 C   0  0  2  0  0  0  0  0  0  0  0  0
  -22.3786   17.3816  -29.6124 O   0  0  0  0  0  0  0  0  0  0  0  0
  -20.3951   17.0462  -30.7991 C   0  0  1  0  0  0  0  0  0  0  0  0
  -21.0998   16.1345  -31.5810 O   0  0  0  0  0  0  0  0  0  0  0  0
  2  1  1  6
  2  3  1  0
  3  4  1  0
  4  5  1  6
  6  5  1  6
  6  7  1  0
  7  8  1  1
  8  9  1  0
  7 10  1  0
 10 11  1  0
 11 12  1  6
 13 12  1  1
 13 14  1  0
 14 15  1  1
 15 16  1  0
 14 17  1  0
 17 18  1  0
 18 19  1  0
 18 20  1  0
 20 21  1  6
 20 22  1  0
 22 23  1  1
 11 24  1  0
 24 25  1  6
 24 26  1  0
 26 27  1  1
  4 28  1  0
 28 29  1  6
 28 30  1  0
 30 31  1  1
 30 32  1  0
 32 33  1  1
 34 33  1  6
 34 35  1  0
 35 36  2  0
 36 37  1  0
 37 38  1  0
 36 39  1  0
 39 40  1  6
 39 41  1  0
 41 42  1  1
 41 43  1  0
 43 44  1  6
 32  2  1  0
 43 34  1  0
 26  6  1  0
 22 13  1  0
M  END
$$$$
