
     RDKit          3D

 31 31  0  0  0  0  0  0  0  0999 V2000
  -18.4666   20.5683  -30.6552 C   0  0  0  0  0  0  0  0  0  0  0  0
  -18.9792   19.5861  -31.5419 O   0  0  0  0  0  0  0  0  0  0  0  0
  -18.6651   19.5303  -32.8879 C   0  0  0  0  0  0  0  0  0  0  0  0
  -17.8783   20.4066  -33.3266 O   0  0  0  0  0  0  0  0  0  0  0  0
  -19.2214   18.4895  -33.8000 C   0  0  2  0  0  0  0  0  0  0  0  0
  -19.0151   17.0841  -33.2743 C   0  0  0  0  0  0  0  0  0  0  0  0
  -17.5915   16.6958  -33.0751 C   0  0  0  0  0  0  0  0  0  0  0  0
  -16.7964   17.7796  -31.8990 S   0  0  0  0  0  0  0  0  0  0  0  0
  -15.0826   17.3728  -31.5834 C   0  0  0  0  0  0  0  0  0  0  0  0
  -18.7728   18.6446  -35.1455 N   0  0  0  0  0  0  0  0  0  0  0  0
  -19.7023   18.9194  -36.1877 C   0  0  0  0  0  0  0  0  0  0  0  0
  -20.8964   19.0049  -35.8309 O   0  0  0  0  0  0  0  0  0  0  0  0
  -19.2756   19.0871  -37.5755 C   0  0  0  0  0  0  0  0  0  0  0  0
  -17.9395   19.4223  -37.8478 C   0  0  0  0  0  0  0  0  0  0  0  0
  -17.4788   19.5526  -39.1283 C   0  0  0  0  0  0  0  0  0  0  0  0
  -18.3450   19.3506  -40.1955 C   0  0  0  0  0  0  0  0  0  0  0  0
  -17.8927   19.4824  -41.5360 N   0  0  0  0  0  0  0  0  0  0  0  0
  -16.5333   19.8274  -41.8369 C   0  0  0  0  0  0  0  0  0  0  0  0
  -16.3037   19.9194  -43.3208 C   0  0  1  0  0  0  0  0  0  0  0  0
  -16.5890   18.6665  -43.9666 N   0  0  0  0  0  0  0  0  0  0  0  0
  -17.1744   20.9873  -43.9081 C   0  0  0  0  0  0  0  0  0  0  0  0
  -16.8110   22.5885  -43.1729 S   0  0  0  0  0  0  0  0  0  0  0  0
  -19.6460   19.0252  -39.9456 C   0  0  0  0  0  0  0  0  0  0  0  0
  -20.1244   18.8912  -38.6349 C   0  0  0  0  0  0  0  0  0  0  0  0
  -21.5364   18.5948  -38.4260 C   0  0  0  0  0  0  0  0  0  0  0  0
  -22.0090   17.3452  -38.7627 C   0  0  0  0  0  0  0  0  0  0  0  0
  -23.3585   17.0178  -38.6247 C   0  0  0  0  0  0  0  0  0  0  0  0
  -24.2463   17.9368  -38.1493 C   0  0  0  0  0  0  0  0  0  0  0  0
  -23.7969   19.1916  -37.8072 C   0  0  0  0  0  0  0  0  0  0  0  0
  -22.4523   19.4966  -37.9521 C   0  0  0  0  0  0  0  0  0  0  0  0
  -18.8164   19.0687  -38.0354 Cl  0  0  0  0  0  0  0  0  0  0  0  0
  1  2  1  0
  2  3  1  0
  3  4  2  0
  3  5  1  0
  5  6  1  1
  6  7  1  0
  7  8  1  0
  8  9  1  0
  5 10  1  0
 10 11  1  0
 11 12  2  0
 11 13  1  0
 13 14  2  0
 14 15  1  0
 15 16  2  0
 16 17  1  0
 17 18  1  0
 18 19  1  0
 19 20  1  6
 19 21  1  0
 21 22  1  0
 16 23  1  0
 23 24  2  0
 24 25  1  0
 25 26  2  0
 26 27  1  0
 27 28  2  0
 28 29  1  0
 29 30  2  0
 24 13  1  0
 30 25  1  0
M  END
$$$$
