
     RDKit          3D

 10  9  0  0  0  0  0  0  0  0999 V2000
  -17.1301   37.1867  -21.5339 O   0  0  0  0  0  0  0  0  0  0  0  0
  -18.0629   37.4133  -22.3298 C   0  0  0  0  0  0  0  0  0  0  0  0
  -17.9200   38.4744  -23.1945 O   0  0  0  0  0  0  0  0  0  0  0  0
  -19.2437   36.5681  -22.3179 C   0  0  0  0  0  0  0  0  0  0  0  0
  -19.0461   35.2489  -21.7972 N   0  0  0  0  0  0  0  0  0  0  0  0
  -19.7380   34.0955  -22.2332 C   0  0  0  0  0  0  0  0  0  0  0  0
  -20.6489   34.2459  -23.0817 O   0  0  0  0  0  0  0  0  0  0  0  0
  -19.3919   32.7899  -21.7057 C   0  0  0  0  0  0  0  0  0  0  0  0
  -18.4186   32.7124  -20.9167 O   0  0  0  0  0  0  0  0  0  0  0  0
  -20.0622   31.6283  -22.0142 O   0  0  0  0  0  0  0  0  0  0  0  0
  1  2  2  0
  2  3  1  0
  2  4  1  0
  4  5  1  0
  5  6  1  0
  6  7  2  0
  6  8  1  0
  8  9  2  0
  8 10  1  0
M  END
$$$$
