
     RDKit          3D

 27 29  0  0  0  0  0  0  0  0999 V2000
  -20.0679   33.4647  -26.2453 O   0  0  0  0  0  0  0  0  0  0  0  0
  -21.2557   33.8918  -26.1253 C   0  0  0  0  0  0  0  0  0  0  0  0
  -21.3886   35.1276  -25.4899 N   0  0  0  0  0  0  0  0  0  0  0  0
  -20.2998   35.8721  -24.9031 C   0  0  0  0  0  0  0  0  0  0  0  0
  -20.3239   37.3326  -25.1433 C   0  0  0  0  0  0  0  0  0  0  0  0
  -20.6870   38.1292  -23.8794 C   0  0  0  0  0  0  0  0  0  0  0  0
  -19.6410   37.9122  -22.9457 N   0  0  0  0  0  0  0  0  0  0  0  0
  -19.6865   38.6529  -21.7513 C   0  0  0  0  0  0  0  0  0  0  0  0
  -18.4671   38.5931  -20.8843 C   0  0  0  0  0  0  0  0  0  0  0  0
  -18.1311   37.3347  -20.4851 F   0  0  0  0  0  0  0  0  0  0  0  0
  -17.3808   39.2075  -21.5228 F   0  0  0  0  0  0  0  0  0  0  0  0
  -18.7077   39.3483  -19.7537 F   0  0  0  0  0  0  0  0  0  0  0  0
  -19.1542   36.5712  -22.8551 C   0  0  0  0  0  0  0  0  0  0  0  0
  -20.2476   35.6566  -23.3826 C   0  0  0  0  0  0  0  0  0  0  0  0
  -22.3655   33.1159  -26.6277 C   0  0  0  0  0  0  0  0  0  0  0  0
  -22.1584   32.0636  -27.4730 C   0  0  0  0  0  0  0  0  0  0  0  0
  -23.2448   31.3165  -27.9607 C   0  0  0  0  0  0  0  0  0  0  0  0
  -24.5186   31.6407  -27.5908 C   0  0  0  0  0  0  0  0  0  0  0  0
  -25.6774   30.8893  -28.0869 C   0  0  0  0  0  0  0  0  0  0  0  0
  -26.7923   30.8400  -27.2435 C   0  0  0  0  0  0  0  0  0  0  0  0
  -27.9382   30.1707  -27.5871 C   0  0  0  0  0  0  0  0  0  0  0  0
  -27.9682   29.5365  -28.8024 C   0  0  0  0  0  0  0  0  0  0  0  0
  -26.8759   29.5735  -29.6501 C   0  0  0  0  0  0  0  0  0  0  0  0
  -26.8797   28.9517  -30.8625 F   0  0  0  0  0  0  0  0  0  0  0  0
  -25.7130   30.2550  -29.2974 C   0  0  0  0  0  0  0  0  0  0  0  0
  -24.6948   32.6844  -26.7551 N   0  0  0  0  0  0  0  0  0  0  0  0
  -23.6751   33.4241  -26.2667 C   0  0  0  0  0  0  0  0  0  0  0  0
  1  2  2  0
  2  3  1  0
  3  4  1  0
  4  5  1  0
  5  6  1  0
  6  7  1  0
  7  8  1  0
  8  9  1  0
  9 10  1  0
  9 11  1  0
  9 12  1  0
  7 13  1  0
 13 14  1  0
  2 15  1  0
 15 16  2  0
 16 17  1  0
 17 18  2  0
 18 19  1  0
 19 20  2  0
 20 21  1  0
 21 22  2  0
 22 23  1  0
 23 24  1  0
 23 25  2  0
 18 26  1  0
 26 27  2  0
 14  4  1  0
 27 15  1  0
 25 19  1  0
M  END
$$$$
