
     RDKit          3D

 28 31  0  0  0  0  0  0  0  0999 V2000
  -27.5099   44.5115  -19.7932 C   0  0  0  0  0  0  0  0  0  0  0  0
  -28.8531   44.2108  -19.1736 C   0  0  2  0  0  0  0  0  0  0  0  0
  -29.8708   44.3897  -20.3081 C   0  0  0  0  0  0  0  0  0  0  0  0
  -29.2438   44.1782  -21.6491 C   0  0  0  0  0  0  0  0  0  0  0  0
  -28.9073   42.7356  -21.8777 C   0  0  0  0  0  0  0  0  0  0  0  0
  -29.2200   41.8515  -21.0201 O   0  0  0  0  0  0  0  0  0  0  0  0
  -28.2469   42.2946  -23.0149 O   0  0  0  0  0  0  0  0  0  0  0  0
  -29.2662   45.1042  -18.0685 C   0  0  1  0  0  0  0  0  0  0  0  0
  -30.7676   44.9115  -17.8699 C   0  0  0  0  0  0  0  0  0  0  0  0
  -30.8884   44.5075  -16.3879 C   0  0  0  0  0  0  0  0  0  0  0  0
  -29.7794   45.2944  -15.8226 C   0  0  1  0  0  0  0  0  0  0  0  0
  -29.5001   45.1650  -14.3872 C   0  0  2  0  0  0  0  0  0  0  0  0
  -30.7166   45.7014  -13.6295 C   0  0  0  0  0  0  0  0  0  0  0  0
  -30.4108   45.6661  -12.1462 C   0  0  0  0  0  0  0  0  0  0  0  0
  -29.1830   46.4594  -11.8231 C   0  0  2  0  0  0  0  0  0  0  0  0
  -29.5226   47.9201  -11.9417 C   0  0  0  0  0  0  0  0  0  0  0  0
  -28.3574   48.8314  -11.7082 C   0  0  2  0  0  0  0  0  0  0  0  0
  -28.7476   50.1233  -12.1210 O   0  0  0  0  0  0  0  0  0  0  0  0
  -27.2005   48.4444  -12.6092 C   0  0  0  0  0  0  0  0  0  0  0  0
  -26.8521   46.9996  -12.3514 C   0  0  0  0  0  0  0  0  0  0  0  0
  -27.9736   46.0602  -12.6338 C   0  0  1  0  0  0  0  0  0  0  0  0
  -27.5355   44.6762  -12.2079 C   0  0  0  0  0  0  0  0  0  0  0  0
  -28.3418   46.1002  -14.0892 C   0  0  1  0  0  0  0  0  0  0  0  0
  -27.1718   45.8695  -14.9877 C   0  0  0  0  0  0  0  0  0  0  0  0
  -27.5693   45.9885  -16.4379 C   0  0  2  0  0  0  0  0  0  0  0  0
  -28.2160   47.2148  -16.5842 O   0  0  0  0  0  0  0  0  0  0  0  0
  -28.6198   44.9274  -16.7439 C   0  0  2  0  0  0  0  0  0  0  0  0
  -28.0478   43.5903  -16.4591 C   0  0  0  0  0  0  0  0  0  0  0  0
  2  1  1  6
  2  3  1  0
  3  4  1  0
  4  5  1  0
  5  6  2  0
  5  7  1  0
  2  8  1  0
  8  9  1  1
  9 10  1  0
 11 10  1  6
 11 12  1  0
 12 13  1  1
 13 14  1  0
 15 14  1  6
 15 16  1  0
 16 17  1  0
 17 18  1  6
 17 19  1  0
 19 20  1  0
 20 21  1  0
 21 22  1  1
 21 23  1  0
 23 24  1  6
 24 25  1  0
 25 26  1  1
 25 27  1  0
 27 28  1  1
 27  8  1  0
 27 11  1  0
 23 12  1  0
 21 15  1  0
M  END
$$$$
