
     RDKit          3D

 29 30  0  0  0  0  0  0  0  0999 V2000
  -27.9958   12.6371  -26.2712 C   0  0  0  0  0  0  0  0  0  0  0  0
  -27.1205   12.5616  -25.0751 C   0  0  0  0  0  0  0  0  0  0  0  0
  -25.8165   12.9108  -25.1837 C   0  0  0  0  0  0  0  0  0  0  0  0
  -25.4007   13.3351  -26.4925 C   0  0  0  0  0  0  0  0  0  0  0  0
  -24.2135   13.6155  -26.9448 C   0  0  0  0  0  0  0  0  0  0  0  0
  -24.0060   13.9333  -28.3532 C   0  0  0  0  0  0  0  0  0  0  0  0
  -24.2955   13.0662  -29.5021 C   0  0  0  0  0  0  0  0  0  0  0  0
  -23.5046   15.1281  -28.6222 C   0  0  0  0  0  0  0  0  0  0  0  0
  -22.1037   15.2821  -28.9787 C   0  0  0  0  0  0  0  0  0  0  0  0
  -21.7250   16.0050  -30.0113 C   0  0  0  0  0  0  0  0  0  0  0  0
  -20.3624   16.2459  -30.4220 C   0  0  0  0  0  0  0  0  0  0  0  0
  -20.0221   16.7613  -31.7537 C   0  0  0  0  0  0  0  0  0  0  0  0
  -19.3911   15.9814  -29.5380 C   0  0  0  0  0  0  0  0  0  0  0  0
  -18.1093   15.4130  -29.9247 C   0  0  0  0  0  0  0  0  0  0  0  0
  -17.8281   15.0356  -31.0808 O   0  0  0  0  0  0  0  0  0  0  0  0
  -17.0582   15.2491  -28.9607 N   0  0  0  0  0  0  0  0  0  0  0  0
  -15.7869   14.7390  -29.3378 C   0  0  0  0  0  0  0  0  0  0  0  0
  -14.6029   15.3444  -29.0307 C   0  0  0  0  0  0  0  0  0  0  0  0
  -13.4041   14.7766  -29.4392 C   0  0  0  0  0  0  0  0  0  0  0  0
  -13.3466   13.6019  -30.1579 C   0  0  0  0  0  0  0  0  0  0  0  0
  -12.1300   13.0465  -30.5597 O   0  0  0  0  0  0  0  0  0  0  0  0
  -14.5468   12.9938  -30.4658 C   0  0  0  0  0  0  0  0  0  0  0  0
  -15.7470   13.5651  -30.0552 C   0  0  0  0  0  0  0  0  0  0  0  0
  -25.0668   12.7867  -23.9379 C   0  0  0  0  0  0  0  0  0  0  0  0
  -25.5639   13.8476  -22.9445 C   0  0  0  0  0  0  0  0  0  0  0  0
  -23.5790   12.8528  -23.9689 C   0  0  0  0  0  0  0  0  0  0  0  0
  -25.4278   11.4092  -23.3235 C   0  0  0  0  0  0  0  0  0  0  0  0
  -26.8537   11.3494  -22.9240 C   0  0  0  0  0  0  0  0  0  0  0  0
  -27.7579   12.1176  -23.8267 C   0  0  0  0  0  0  0  0  0  0  0  0
  1  2  1  0
  2  3  2  0
  3  4  1  0
  4  5  2  0
  5  6  1  0
  6  7  1  0
  6  8  2  0
  8  9  1  0
  9 10  2  0
 10 11  1  0
 11 12  1  0
 11 13  2  0
 13 14  1  0
 14 15  2  0
 14 16  1  0
 16 17  1  0
 17 18  2  0
 18 19  1  0
 19 20  2  0
 20 21  1  0
 20 22  1  0
 22 23  2  0
  3 24  1  0
 24 25  1  0
 24 26  1  0
 24 27  1  0
 27 28  1  0
 28 29  1  0
 29  2  1  0
 23 17  1  0
M  END
$$$$
