
     RDKit          3D

 19 21  0  0  0  0  0  0  0  0999 V2000
  -32.4482   14.1487  -20.7023 O   0  0  0  0  0  0  0  0  0  0  0  0
  -31.2310   14.0161  -21.0090 C   0  0  0  0  0  0  0  0  0  0  0  0
  -30.4833   15.1772  -21.4521 C   0  0  0  0  0  0  0  0  0  0  0  0
  -31.0053   16.3097  -21.5411 O   0  0  0  0  0  0  0  0  0  0  0  0
  -29.0728   15.0119  -21.8052 C   0  0  0  0  0  0  0  0  0  0  0  0
  -28.3765   16.1177  -22.2228 C   0  0  0  0  0  0  0  0  0  0  0  0
  -27.0476   15.9720  -22.5575 C   0  0  0  0  0  0  0  0  0  0  0  0
  -26.2535   17.0523  -22.9968 N   0  0  0  0  0  4  0  0  0  0  0  0
  -26.5429   18.1965  -22.6359 O   0  0  0  0  0  0  0  0  0  0  0  0
  -25.1856   16.8429  -23.8046 O   0  0  0  0  0  1  0  0  0  0  0  0
  -26.4625   14.7358  -22.4646 C   0  0  0  0  0  0  0  0  0  0  0  0
  -27.1925   13.6383  -22.0393 C   0  0  0  0  0  0  0  0  0  0  0  0
  -28.5154   13.7611  -21.7016 C   0  0  0  0  0  0  0  0  0  0  0  0
  -29.2632   12.5914  -21.2567 C   0  0  0  0  0  0  0  0  0  0  0  0
  -28.6746   11.3604  -21.1658 C   0  0  0  0  0  0  0  0  0  0  0  0
  -29.4461   10.2863  -20.7340 C   0  0  0  0  0  0  0  0  0  0  0  0
  -30.7594   10.3976  -20.3965 C   0  0  0  0  0  0  0  0  0  0  0  0
  -31.3599   11.6369  -20.4859 C   0  0  0  0  0  0  0  0  0  0  0  0
  -30.6009   12.7182  -20.9158 C   0  0  0  0  0  0  0  0  0  0  0  0
  1  2  2  0
  2  3  1  0
  3  4  2  0
  3  5  1  0
  5  6  2  0
  6  7  1  0
  7  8  1  0
  8  9  2  0
  8 10  1  0
  7 11  2  0
 11 12  1  0
 12 13  2  0
 13 14  1  0
 14 15  2  0
 15 16  1  0
 16 17  2  0
 17 18  1  0
 18 19  2  0
 19  2  1  0
 13  5  1  0
 19 14  1  0
M  CHG  2   8   1  10  -1
M  END
$$$$
