
     RDKit          3D

 13 14  0  0  0  0  0  0  0  0999 V2000
  -18.0208   16.8093  -33.0417 O   0  0  0  0  0  0  0  0  0  0  0  0
  -17.7430   16.1941  -31.8152 C   0  0  0  0  0  0  0  0  0  0  0  0
  -16.5964   15.4091  -31.6729 C   0  0  0  0  0  0  0  0  0  0  0  0
  -16.3055   14.7962  -30.4764 C   0  0  0  0  0  0  0  0  0  0  0  0
  -17.1761   14.9786  -29.4250 C   0  0  0  0  0  0  0  0  0  0  0  0
  -16.8213   14.2059  -27.8951 Cl  0  0  0  0  0  0  0  0  0  0  0  0
  -18.3015   15.7555  -29.5825 C   0  0  0  0  0  0  0  0  0  0  0  0
  -18.6305   16.3945  -30.7838 C   0  0  0  0  0  0  0  0  0  0  0  0
  -19.8387   17.2034  -30.8824 C   0  0  0  0  0  0  0  0  0  0  0  0
  -20.5223   17.6874  -31.9440 C   0  0  0  0  0  0  0  0  0  0  0  0
  -21.5916   18.3886  -31.4747 N   0  0  0  0  0  0  0  0  0  0  0  0
  -21.5781   18.3451  -30.1545 N   0  0  0  0  0  0  0  0  0  0  0  0
  -20.5324   17.6380  -29.7968 N   0  0  0  0  0  0  0  0  0  0  0  0
  1  2  1  0
  2  3  2  0
  3  4  1  0
  4  5  2  0
  5  6  1  0
  5  7  1  0
  7  8  2  0
  8  9  1  0
  9 10  2  0
 10 11  1  0
 11 12  1  0
 12 13  2  0
  8  2  1  0
 13  9  1  0
M  END
$$$$
