
     RDKit          3D

 23 25  0  0  0  0  0  0  0  0999 V2000
  -17.8103   41.8926  -20.8687 Br  0  0  0  0  0  0  0  0  0  0  0  0
  -14.1716   46.8787  -19.8274 C   0  0  0  0  0  0  0  0  0  0  0  0
  -15.3310   46.1110  -20.1494 N   0  0  0  0  0  0  0  0  0  0  0  0
  -15.8596   45.4590  -18.9680 C   0  0  1  0  0  0  0  0  0  0  0  0
  -17.1597   44.7784  -19.1747 C   0  0  0  0  0  0  0  0  0  0  0  0
  -17.3103   44.0509  -20.4644 C   0  0  2  0  0  0  0  0  0  0  0  0
  -17.2299   42.6440  -20.3232 O   0  0  0  0  0  0  0  0  0  0  0  0
  -18.2987   41.8329  -20.6703 C   0  0  0  0  0  0  0  0  0  0  0  0
  -19.3178   42.4256  -21.1084 O   0  0  0  0  0  0  0  0  0  0  0  0
  -18.2316   40.3553  -20.5287 C   0  0  2  0  0  0  0  0  0  0  0  0
  -17.1083   39.7667  -21.3592 C   0  0  0  0  0  0  0  0  0  0  0  0
  -17.2645   40.0404  -22.7060 O   0  0  0  0  0  0  0  0  0  0  0  0
  -19.4842   39.7365  -20.9617 C   0  0  0  0  0  0  0  0  0  0  0  0
  -20.1512   38.9144  -20.0802 C   0  0  0  0  0  0  0  0  0  0  0  0
  -21.3477   38.2888  -20.4131 C   0  0  0  0  0  0  0  0  0  0  0  0
  -21.8695   38.5084  -21.6685 C   0  0  0  0  0  0  0  0  0  0  0  0
  -21.1852   39.3415  -22.5496 C   0  0  0  0  0  0  0  0  0  0  0  0
  -20.0022   39.9601  -22.2205 C   0  0  0  0  0  0  0  0  0  0  0  0
  -16.3177   44.4460  -21.5227 C   0  0  0  0  0  0  0  0  0  0  0  0
  -15.0153   44.9357  -20.9768 C   0  0  2  0  0  0  0  0  0  0  0  0
  -14.3742   43.9792  -20.0130 C   0  0  1  0  0  0  0  0  0  0  0  0
  -13.5254   44.5629  -19.0956 O   0  0  0  0  0  0  0  0  0  0  0  0
  -14.8093   44.4264  -18.6317 C   0  0  1  0  0  0  0  0  0  0  0  0
  2  3  1  0
  3  4  1  0
  4  5  1  6
  5  6  1  0
  6  7  1  1
  7  8  1  0
  8  9  2  0
  8 10  1  0
 10 11  1  6
 11 12  1  0
 10 13  1  0
 13 14  2  0
 14 15  1  0
 15 16  2  0
 16 17  1  0
 17 18  2  0
  6 19  1  0
 20 19  1  1
 20 21  1  0
 21 22  1  1
 23 22  1  6
 20  3  1  0
 23 21  1  0
 23  4  1  0
 18 13  1  0
M  END
$$$$
