
     RDKit          3D

 16 18  0  0  0  0  0  0  0  0999 V2000
  -24.5306   17.4378  -30.8568 C   0  0  0  0  0  0  0  0  0  0  0  0
  -23.8592   18.5712  -30.3930 O   0  0  0  0  0  0  0  0  0  0  0  0
  -22.5255   18.8218  -30.5250 C   0  0  0  0  0  0  0  0  0  0  0  0
  -21.9743   20.0051  -30.0832 C   0  0  0  0  0  0  0  0  0  0  0  0
  -20.6265   20.2818  -30.2058 C   0  0  0  0  0  0  0  0  0  0  0  0
  -19.8069   19.3338  -30.7936 C   0  0  0  0  0  0  0  0  0  0  0  0
  -18.4838   19.3095  -31.0500 N   0  0  0  0  0  0  0  0  0  0  0  0
  -18.1171   18.1668  -31.6433 C   0  0  0  0  0  0  0  0  0  0  0  0
  -16.9064   17.6877  -32.0879 C   0  0  0  0  0  0  0  0  0  0  0  0
  -15.3907   18.6060  -31.9468 S   0  0  0  0  0  0  0  0  0  0  0  0
  -16.8782   16.4749  -32.6507 N   0  0  0  0  0  0  0  0  0  0  0  0
  -18.0070   15.7237  -32.7868 C   0  0  0  0  0  0  0  0  0  0  0  0
  -19.1840   16.2097  -32.3452 N   0  0  0  0  0  0  0  0  0  0  0  0
  -19.2890   17.4232  -31.7679 C   0  0  0  0  0  0  0  0  0  0  0  0
  -20.3295   18.1419  -31.2446 C   0  0  0  0  0  0  0  0  0  0  0  0
  -21.6720   17.8831  -31.1147 C   0  0  0  0  0  0  0  0  0  0  0  0
  1  2  1  0
  2  3  1  0
  3  4  2  0
  4  5  1  0
  5  6  2  0
  6  7  1  0
  7  8  1  0
  8  9  2  0
  9 10  1  0
  9 11  1  0
 11 12  2  0
 12 13  1  0
 13 14  2  0
 14 15  1  0
 15 16  2  0
 16  3  1  0
 15  6  1  0
 14  8  1  0
M  END
$$$$
