
     RDKit          3D

 26 29  0  0  0  0  0  0  0  0999 V2000
  -18.8154   21.6915  -45.7010 C   0  0  0  0  0  0  0  0  0  0  0  0
  -19.0902   21.0993  -44.4350 N   0  0  0  0  0  0  0  0  0  0  0  0
  -20.1654   21.6996  -43.7069 C   0  0  0  0  0  0  0  0  0  0  0  0
  -20.0186   21.3200  -42.2322 C   0  0  0  0  0  0  0  0  0  0  0  0
  -19.3556   19.9328  -42.1586 C   0  0  0  0  0  0  0  0  0  0  0  0
  -19.3560   19.4353  -40.8049 C   0  0  0  0  0  0  0  0  0  0  0  0
  -20.5453   19.2272  -40.0852 C   0  0  0  0  0  0  0  0  0  0  0  0
  -20.2265   18.7645  -38.8735 N   0  0  0  0  0  0  0  0  0  0  0  0
  -18.9025   18.6532  -38.7459 C   0  0  0  0  0  0  0  0  0  0  0  0
  -18.0667   18.2332  -37.7183 C   0  0  0  0  0  0  0  0  0  0  0  0
  -16.7056   18.2440  -37.9270 C   0  0  0  0  0  0  0  0  0  0  0  0
  -16.1348   18.6542  -39.1133 C   0  0  0  0  0  0  0  0  0  0  0  0
  -14.7158   18.6452  -39.2763 N   0  0  0  0  0  0  0  0  0  0  0  0
  -14.0564   17.9381  -40.2899 C   0  0  0  0  0  0  0  0  0  0  0  0
  -14.7500   17.5390  -41.2646 O   0  0  0  0  0  0  0  0  0  0  0  0
  -12.6222   17.6391  -40.2822 C   0  0  0  0  0  0  0  0  0  0  0  0
  -12.0434   17.0080  -39.2010 C   0  0  0  0  0  0  0  0  0  0  0  0
  -10.6934   16.7031  -39.1440 C   0  0  0  0  0  0  0  0  0  0  0  0
   -9.8658   17.0317  -40.1978 C   0  0  0  0  0  0  0  0  0  0  0  0
   -8.5371   16.7455  -40.1709 F   0  0  0  0  0  0  0  0  0  0  0  0
  -10.4335   17.6619  -41.2818 C   0  0  0  0  0  0  0  0  0  0  0  0
  -11.7971   17.9658  -41.3307 C   0  0  0  0  0  0  0  0  0  0  0  0
  -16.9792   19.0703  -40.1291 C   0  0  0  0  0  0  0  0  0  0  0  0
  -18.3442   19.0690  -39.9454 C   0  0  0  0  0  0  0  0  0  0  0  0
  -19.9347   19.1392  -43.2510 C   0  0  0  0  0  0  0  0  0  0  0  0
  -19.2755   19.6425  -44.5562 C   0  0  0  0  0  0  0  0  0  0  0  0
  1  2  1  0
  2  3  1  0
  3  4  1  0
  4  5  1  0
  5  6  1  0
  6  7  2  0
  7  8  1  0
  8  9  1  0
  9 10  2  0
 10 11  1  0
 11 12  2  0
 12 13  1  0
 13 14  1  0
 14 15  2  0
 14 16  1  0
 16 17  2  0
 17 18  1  0
 18 19  2  0
 19 20  1  0
 19 21  1  0
 21 22  2  0
 12 23  1  0
 23 24  2  0
  5 25  1  0
 25 26  1  0
 26  2  1  0
 24  6  1  0
 24  9  1  0
 22 16  1  0
M  END
$$$$
