
     RDKit          3D

 34 37  0  0  0  0  0  0  0  0999 V2000
  -12.9039   46.3310  -17.7147 C   0  0  0  0  0  0  0  0  0  0  0  0
  -14.1619   46.3838  -18.5580 C   0  0  0  0  0  0  0  0  0  0  0  0
  -14.8280   45.0951  -18.4496 N   0  0  0  0  0  0  0  0  0  0  0  0
  -16.0070   44.7706  -19.1792 C   0  0  0  0  0  0  0  0  0  0  0  0
  -16.5406   45.6586  -19.8857 O   0  0  0  0  0  0  0  0  0  0  0  0
  -16.5699   43.4225  -19.0938 C   0  0  0  0  0  0  0  0  0  0  0  0
  -16.1696   42.4454  -18.2368 N   0  0  0  0  0  0  0  0  0  0  0  0
  -16.8943   41.4208  -18.4624 O   0  0  0  0  0  0  0  0  0  0  0  0
  -17.7792   41.6090  -19.4211 C   0  0  0  0  0  0  0  0  0  0  0  0
  -18.7326   40.6231  -19.8901 C   0  0  0  0  0  0  0  0  0  0  0  0
  -18.5391   39.9494  -21.0705 C   0  0  0  0  0  0  0  0  0  0  0  0
  -19.4561   38.9978  -21.5255 C   0  0  0  0  0  0  0  0  0  0  0  0
  -19.1960   38.3011  -22.8046 C   0  0  0  0  0  0  0  0  0  0  0  0
  -17.9976   37.3955  -22.7323 C   0  0  0  0  0  0  0  0  0  0  0  0
  -19.0027   39.2598  -23.9418 C   0  0  0  0  0  0  0  0  0  0  0  0
  -20.5764   38.7193  -20.7914 C   0  0  0  0  0  0  0  0  0  0  0  0
  -21.5029   37.7580  -21.2515 O   0  0  0  0  0  0  0  0  0  0  0  0
  -20.7783   39.3876  -19.6105 C   0  0  0  0  0  0  0  0  0  0  0  0
  -19.8592   40.3349  -19.1639 C   0  0  0  0  0  0  0  0  0  0  0  0
  -20.1489   40.9654  -17.9484 O   0  0  0  0  0  0  0  0  0  0  0  0
  -17.5903   42.9026  -19.8494 C   0  0  0  0  0  0  0  0  0  0  0  0
  -18.3270   43.5833  -20.8940 C   0  0  0  0  0  0  0  0  0  0  0  0
  -17.7559   43.9092  -22.1050 C   0  0  0  0  0  0  0  0  0  0  0  0
  -18.4353   44.5581  -23.1146 C   0  0  0  0  0  0  0  0  0  0  0  0
  -19.7672   44.9080  -22.9143 C   0  0  0  0  0  0  0  0  0  0  0  0
  -20.5391   45.6005  -23.9736 C   0  0  0  0  0  0  0  0  0  0  0  0
  -21.5236   44.8010  -24.6208 N   0  0  0  0  0  0  0  0  0  0  0  0
  -21.0541   43.8099  -25.5281 C   0  0  0  0  0  0  0  0  0  0  0  0
  -21.1559   44.2579  -26.9834 C   0  0  0  0  0  0  0  0  0  0  0  0
  -22.4554   44.4780  -27.3731 O   0  0  0  0  0  0  0  0  0  0  0  0
  -23.2788   44.8533  -26.3324 C   0  0  0  0  0  0  0  0  0  0  0  0
  -22.5340   45.6009  -25.2415 C   0  0  0  0  0  0  0  0  0  0  0  0
  -20.3241   44.5752  -21.6983 C   0  0  0  0  0  0  0  0  0  0  0  0
  -19.6452   43.9254  -20.6859 C   0  0  0  0  0  0  0  0  0  0  0  0
  1  2  1  0
  2  3  1  0
  3  4  1  0
  4  5  2  0
  4  6  1  0
  6  7  2  0
  7  8  1  0
  8  9  1  0
  9 10  1  0
 10 11  2  0
 11 12  1  0
 12 13  1  0
 13 14  1  0
 13 15  1  0
 12 16  2  0
 16 17  1  0
 16 18  1  0
 18 19  2  0
 19 20  1  0
  9 21  2  0
 21 22  1  0
 22 23  2  0
 23 24  1  0
 24 25  2  0
 25 26  1  0
 26 27  1  0
 27 28  1  0
 28 29  1  0
 29 30  1  0
 30 31  1  0
 31 32  1  0
 25 33  1  0
 33 34  2  0
 21  6  1  0
 34 22  1  0
 19 10  1  0
 32 27  1  0
M  END
$$$$
