
     RDKit          3D

 34 34  0  0  0  0  0  0  0  0999 V2000
  -31.9588   11.3856  -22.6341 C   0  0  0  0  0  0  0  0  0  0  0  0
  -31.4885   11.8797  -21.3252 C   0  0  0  0  0  0  0  0  0  0  0  0
  -32.3991   12.8308  -20.6122 C   0  0  0  0  0  0  0  0  0  0  0  0
  -30.0874   12.2112  -21.1499 C   0  0  0  0  0  0  0  0  0  0  0  0
  -29.2645   11.1636  -20.7415 N   0  0  0  0  0  0  0  0  0  0  0  0
  -27.9730   11.3289  -20.4471 C   0  0  0  0  0  0  0  0  0  0  0  0
  -27.1422   10.2433  -20.0315 N   0  0  0  0  0  0  0  0  0  0  0  0
  -26.4466    9.5064  -21.0679 C   0  0  0  0  0  0  0  0  0  0  0  0
  -26.9452    9.7950  -18.3983 S   0  0  0  0  0  6  0  0  0  0  0  0
  -28.4986    9.2932  -17.6685 C   0  0  0  0  0  0  0  0  0  0  0  0
  -26.3826   10.9409  -17.6061 O   0  0  0  0  0  0  0  0  0  0  0  0
  -26.0030    8.6365  -18.2835 O   0  0  0  0  0  0  0  0  0  0  0  0
  -27.4631   12.5580  -20.5517 N   0  0  0  0  0  0  0  0  0  0  0  0
  -28.1621   13.6316  -20.9341 C   0  0  0  0  0  0  0  0  0  0  0  0
  -27.5498   14.9325  -21.0414 C   0  0  0  0  0  0  0  0  0  0  0  0
  -26.4762   15.1609  -21.9062 C   0  0  0  0  0  0  0  0  0  0  0  0
  -25.8288   16.3729  -21.9701 C   0  0  0  0  0  0  0  0  0  0  0  0
  -26.2160   17.4292  -21.1732 C   0  0  0  0  0  0  0  0  0  0  0  0
  -25.5677   18.6220  -21.2467 F   0  0  0  0  0  0  0  0  0  0  0  0
  -27.2720   17.2260  -20.3128 C   0  0  0  0  0  0  0  0  0  0  0  0
  -27.9204   15.9898  -20.2577 C   0  0  0  0  0  0  0  0  0  0  0  0
  -29.5385   13.4462  -21.2526 C   0  0  0  0  0  0  0  0  0  0  0  0
  -30.1527   14.5814  -21.8350 C   0  0  0  0  0  0  0  0  0  0  0  0
  -31.1527   14.6711  -22.6555 C   0  0  0  0  0  0  0  0  0  0  0  0
  -31.6542   16.0041  -23.1528 C   0  0  0  0  0  0  0  0  0  0  0  0
  -32.5974   15.7772  -24.1438 O   0  0  0  0  0  0  0  0  0  0  0  0
  -30.5352   16.8080  -23.7953 C   0  0  0  0  0  0  0  0  0  0  0  0
  -31.1262   18.0994  -24.2523 C   0  0  0  0  0  0  0  0  0  0  0  0
  -31.6521   18.7692  -23.1395 O   0  0  0  0  0  0  0  0  0  0  0  0
  -30.1504   18.9857  -24.9629 C   0  0  0  0  0  0  0  0  0  0  0  0
  -29.5724   18.4082  -26.1764 C   0  0  0  0  0  0  0  0  0  0  0  0
  -29.8591   17.2825  -26.6313 O   0  0  0  0  0  0  0  0  0  0  0  0
  -28.6328   19.1881  -26.8628 O   0  0  0  0  0  1  0  0  0  0  0  0
  -29.3791   14.1257  -21.7808 Ca  0  0  0  0  0 15  0  0  0  0  0  0
  1  2  1  0
  2  3  1  0
  2  4  1  0
  4  5  2  0
  5  6  1  0
  6  7  1  0
  7  8  1  0
  7  9  1  0
  9 10  1  0
  9 11  2  0
  9 12  2  0
  6 13  2  0
 13 14  1  0
 14 15  1  0
 15 16  2  0
 16 17  1  0
 17 18  2  0
 18 19  1  0
 18 20  1  0
 20 21  2  0
 14 22  2  0
 22 23  1  0
 23 24  2  0
 24 25  1  0
 25 26  1  0
 25 27  1  0
 27 28  1  0
 28 29  1  0
 28 30  1  0
 30 31  1  0
 31 32  2  0
 31 33  1  0
 22  4  1  0
 21 15  1  0
M  CHG  2  33  -1  34   2
M  END
$$$$
