
     RDKit          3D

 33 36  0  0  0  0  0  0  0  0999 V2000
  -21.4219   24.7049  -43.0682 C   0  0  0  0  0  0  0  0  0  0  0  0
  -21.2530   23.6885  -42.1193 O   0  0  0  0  0  0  0  0  0  0  0  0
  -20.2226   22.7488  -42.2551 C   0  0  0  0  0  0  0  0  0  0  0  0
  -20.0666   22.0833  -43.4599 C   0  0  0  0  0  0  0  0  0  0  0  0
  -19.0729   21.1495  -43.6530 C   0  0  0  0  0  0  0  0  0  0  0  0
  -18.6804   20.3566  -44.6880 N   0  0  0  0  0  0  0  0  0  0  0  0
  -17.6173   19.6460  -44.2405 C   0  0  0  0  0  0  0  0  0  0  0  0
  -17.3488   19.9687  -42.9917 N   0  0  0  0  0  0  0  0  0  0  0  0
  -16.2881   19.4063  -42.2086 C   0  0  0  0  0  0  0  0  0  0  0  0
  -16.3217   18.7507  -41.0445 C   0  0  0  0  0  0  0  0  0  0  0  0
  -15.2003   18.2927  -40.4579 C   0  0  0  0  0  0  0  0  0  0  0  0
  -15.1215   17.5832  -39.2236 O   0  0  0  0  0  0  0  0  0  0  0  0
  -15.7039   17.8157  -38.0310 C   0  0  0  0  0  0  0  0  0  0  0  0
  -15.2846   17.0108  -36.8610 C   0  0  0  0  0  0  0  0  0  0  0  0
  -14.1592   16.1807  -36.8609 C   0  0  0  0  0  0  0  0  0  0  0  0
  -13.7659   15.4626  -35.7462 C   0  0  0  0  0  0  0  0  0  0  0  0
  -14.5182   15.5766  -34.5974 C   0  0  0  0  0  0  0  0  0  0  0  0
  -15.6319   16.3886  -34.5723 C   0  0  0  0  0  0  0  0  0  0  0  0
  -16.0230   17.1118  -35.7050 C   0  0  0  0  0  0  0  0  0  0  0  0
  -17.2252   17.9714  -35.6317 C   0  0  0  0  0  0  0  0  0  0  0  0
  -17.7935   17.8923  -34.3539 F   0  0  0  0  0  0  0  0  0  0  0  0
  -16.9541   19.3147  -35.8227 F   0  0  0  0  0  0  0  0  0  0  0  0
  -18.2051   17.5287  -36.4969 F   0  0  0  0  0  0  0  0  0  0  0  0
  -13.9955   18.5468  -41.1466 C   0  0  0  0  0  0  0  0  0  0  0  0
  -12.6422   18.2146  -40.8315 C   0  0  0  0  0  0  0  0  0  0  0  0
  -11.6170   18.4911  -41.7875 N   0  0  0  0  0  0  0  0  0  0  0  0
  -12.3561   17.6935  -39.7452 O   0  0  0  0  0  0  0  0  0  0  0  0
  -14.5755   19.4484  -42.6233 S   0  0  0  0  0  0  0  0  0  0  0  0
  -18.2161   20.8936  -42.5757 C   0  0  0  0  0  0  0  0  0  0  0  0
  -18.3763   21.5554  -41.3875 C   0  0  0  0  0  0  0  0  0  0  0  0
  -19.3779   22.4984  -41.1893 C   0  0  0  0  0  0  0  0  0  0  0  0
  -19.5603   23.1819  -39.9955 O   0  0  0  0  0  0  0  0  0  0  0  0
  -19.6289   22.5607  -38.7455 C   0  0  0  0  0  0  0  0  0  0  0  0
  1  2  1  0
  2  3  1  0
  3  4  2  0
  4  5  1  0
  5  6  1  0
  6  7  2  0
  7  8  1  0
  8  9  1  0
  9 10  2  0
 10 11  1  0
 11 12  1  0
 12 13  1  0
 13 14  1  0
 14 15  2  0
 15 16  1  0
 16 17  2  0
 17 18  1  0
 18 19  2  0
 19 20  1  0
 20 21  1  0
 20 22  1  0
 20 23  1  0
 11 24  2  0
 24 25  1  0
 25 26  1  0
 25 27  2  0
 24 28  1  0
  8 29  1  0
 29 30  1  0
 30 31  2  0
 31 32  1  0
 32 33  1  0
 31  3  1  0
 29  5  2  0
 28  9  1  0
 19 14  1  0
M  END
$$$$
