
     RDKit          3D

 23 24  0  0  0  0  0  0  0  0999 V2000
  -24.1257   43.0056  -25.1702 C   0  0  0  0  0  0  0  0  0  0  0  0
  -23.0632   42.3589  -24.8104 O   0  0  0  0  0  0  0  0  0  0  0  0
  -21.9908   42.6252  -24.1308 C   0  0  0  0  0  0  0  0  0  0  0  0
  -20.9221   41.6736  -23.8059 C   0  0  0  0  0  0  0  0  0  0  0  0
  -19.6900   41.9796  -23.1136 C   0  0  0  0  0  0  0  0  0  0  0  0
  -18.9619   41.0726  -22.3195 N   0  0  0  0  0  0  0  0  0  0  0  0
  -18.8360   39.6739  -22.6257 C   0  0  0  0  0  0  0  0  0  0  0  0
  -19.3717   39.2127  -23.6350 O   0  0  0  0  0  0  0  0  0  0  0  0
  -18.0639   38.7677  -21.7329 C   0  0  0  0  0  0  0  0  0  0  0  0
  -18.0270   37.1426  -22.4404 Cl  0  0  0  0  0  0  0  0  0  0  0  0
  -18.3026   41.4824  -21.1154 C   0  0  0  0  0  0  0  0  0  0  0  0
  -17.3911   42.0642  -20.7561 N   0  0  0  0  0  0  0  0  0  0  0  0
  -16.9680   42.3229  -19.5328 C   0  0  0  0  0  0  0  0  0  0  0  0
  -15.7457   43.1055  -19.2359 C   0  0  0  0  0  0  0  0  0  0  0  0
  -15.2894   43.3342  -17.9611 C   0  0  0  0  0  0  0  0  0  0  0  0
  -14.1522   44.0626  -17.7012 C   0  0  0  0  0  0  0  0  0  0  0  0
  -13.4066   44.6054  -18.7300 C   0  0  0  0  0  0  0  0  0  0  0  0
  -12.2523   45.3453  -18.4742 O   0  0  0  0  0  0  0  0  0  0  0  0
  -11.8836   45.6020  -17.1479 C   0  0  0  0  0  0  0  0  0  0  0  0
  -13.8485   44.3869  -20.0182 C   0  0  0  0  0  0  0  0  0  0  0  0
  -14.9892   43.6547  -20.2521 C   0  0  0  0  0  0  0  0  0  0  0  0
  -17.7396   41.8165  -18.5488 C   0  0  0  0  0  0  0  0  0  0  0  0
  -19.0659   40.9741  -19.4588 S   0  0  0  0  0  0  0  0  0  0  0  0
  1  2  1  0
  2  3  1  0
  3  4  1  0
  4  5  1  0
  5  6  1  0
  6  7  1  0
  7  8  2  0
  7  9  1  0
  9 10  1  0
  6 11  1  0
 11 12  2  0
 12 13  1  0
 13 14  1  0
 14 15  2  0
 15 16  1  0
 16 17  2  0
 17 18  1  0
 18 19  1  0
 17 20  1  0
 20 21  2  0
 13 22  2  0
 22 23  1  0
 23 11  1  0
 21 14  1  0
M  END
$$$$
