
     RDKit          3D

 28 30  0  0  0  0  0  0  0  0999 V2000
    2.8198   15.9521  -20.9708 O   0  0  0  0  0  0  0  0  0  0  0  0
    2.6559   17.1106  -20.4462 C   0  0  0  0  0  0  0  0  0  0  0  0
    3.4358   17.4506  -19.2492 C   0  0  0  0  0  0  0  0  0  0  0  0
    3.9986   18.7595  -19.3455 N   0  0  0  0  0  0  0  0  0  0  0  0
    3.0109   19.8080  -19.1483 C   0  0  0  0  0  0  0  0  0  0  0  0
    3.5976   21.1709  -19.3240 C   0  0  0  0  0  0  0  0  0  0  0  0
    4.8143   21.3363  -18.5946 N   0  0  0  0  0  0  0  0  0  0  0  0
    5.1273   22.5270  -17.8652 C   0  0  0  0  0  0  0  0  0  0  0  0
    6.1664   22.6242  -17.1947 O   0  0  0  0  0  0  0  0  0  0  0  0
    4.1545   23.6264  -17.9534 C   0  0  0  0  0  0  0  0  0  0  0  0
    2.8427   23.5731  -17.5830 C   0  0  0  0  0  0  0  0  0  0  0  0
    2.3160   24.8393  -17.8452 C   0  0  0  0  0  0  0  0  0  0  0  0
    3.3425   25.5950  -18.3629 C   0  0  0  0  0  0  0  0  0  0  0  0
    4.4145   24.8444  -18.4121 O   0  0  0  0  0  0  0  0  0  0  0  0
    5.7826   20.2558  -18.5966 C   0  0  0  0  0  0  0  0  0  0  0  0
    5.0957   18.9593  -18.4145 C   0  0  0  0  0  0  0  0  0  0  0  0
    1.7169   17.9302  -21.1031 N   0  0  0  0  0  0  0  0  0  0  0  0
    0.4035   17.4870  -21.4274 C   0  0  0  0  0  0  0  0  0  0  0  0
   -0.4267   17.1079  -20.4023 C   0  0  0  0  0  0  0  0  0  0  0  0
   -1.7209   16.6655  -20.6991 C   0  0  0  0  0  0  0  0  0  0  0  0
   -2.6407   16.2513  -19.6056 C   0  0  0  0  0  0  0  0  0  0  0  0
   -3.3547   15.1088  -19.9459 F   0  0  0  0  0  0  0  0  0  0  0  0
   -3.4905   17.3315  -19.3610 F   0  0  0  0  0  0  0  0  0  0  0  0
   -1.8767   15.9885  -18.4937 F   0  0  0  0  0  0  0  0  0  0  0  0
   -2.0952   16.6343  -22.0229 C   0  0  0  0  0  0  0  0  0  0  0  0
   -1.2838   17.0079  -23.0630 C   0  0  0  0  0  0  0  0  0  0  0  0
    0.0089   17.4480  -22.7413 C   0  0  0  0  0  0  0  0  0  0  0  0
    1.1469   17.9541  -23.9713 Cl  0  0  0  0  0  0  0  0  0  0  0  0
  1  2  2  0
  2  3  1  0
  3  4  1  0
  4  5  1  0
  5  6  1  0
  6  7  1  0
  7  8  1  0
  8  9  2  0
  8 10  1  0
 10 11  2  0
 11 12  1  0
 12 13  2  0
 13 14  1  0
  7 15  1  0
 15 16  1  0
  2 17  1  0
 17 18  1  0
 18 19  2  0
 19 20  1  0
 20 21  1  0
 21 22  1  0
 21 23  1  0
 21 24  1  0
 20 25  2  0
 25 26  1  0
 26 27  2  0
 27 28  1  0
 16  4  1  0
 27 18  1  0
 14 10  1  0
M  END
$$$$
