
     RDKit          3D

 12 13  0  0  0  0  0  0  0  0999 V2000
  -15.8906   42.2850  -20.3179 Cl  0  0  0  0  0  0  0  0  0  0  0  0
  -14.8676   43.5366  -19.6425 C   0  0  0  0  0  0  0  0  0  0  0  0
  -14.5676   44.6720  -20.3635 C   0  0  0  0  0  0  0  0  0  0  0  0
  -13.7648   45.6534  -19.8323 C   0  0  0  0  0  0  0  0  0  0  0  0
  -13.2161   45.5537  -18.5478 C   0  0  0  0  0  0  0  0  0  0  0  0
  -13.5120   44.4214  -17.8218 C   0  0  0  0  0  0  0  0  0  0  0  0
  -14.3319   43.4306  -18.3780 C   0  0  0  0  0  0  0  0  0  0  0  0
  -14.6894   41.9949  -17.4198 Cl  0  0  0  0  0  0  0  0  0  0  0  0
  -12.9684   44.2359  -16.4440 C   0  0  0  0  0  0  0  0  0  0  0  0
  -11.9287   45.1800  -16.2038 N   0  0  0  0  0  0  0  0  0  0  0  0
  -12.3890   46.5353  -16.5037 C   0  0  0  0  0  0  0  0  0  0  0  0
  -12.3511   46.6419  -18.0138 C   0  0  0  0  0  0  0  0  0  0  0  0
  1  2  1  0
  2  3  2  0
  3  4  1  0
  4  5  2  0
  5  6  1  0
  6  7  2  0
  7  8  1  0
  6  9  1  0
  9 10  1  0
 10 11  1  0
 11 12  1  0
  7  2  1  0
 12  5  1  0
M  END
$$$$
