
     RDKit          3D

 34 37  0  0  0  0  0  0  0  0999 V2000
  -23.4414   19.3385  -25.4623 C   0  0  0  0  0  0  0  0  0  0  0  0
  -23.2438   18.3198  -24.5009 O   0  0  0  0  0  0  0  0  0  0  0  0
  -24.0622   17.1778  -24.4743 C   0  0  0  0  0  0  0  0  0  0  0  0
  -25.1749   17.0705  -25.2697 C   0  0  0  0  0  0  0  0  0  0  0  0
  -25.9413   15.9532  -25.2166 C   0  0  0  0  0  0  0  0  0  0  0  0
  -25.6540   14.8835  -24.3793 C   0  0  0  0  0  0  0  0  0  0  0  0
  -26.5501   13.7066  -24.4275 C   0  0  0  0  0  0  0  0  0  0  0  0
  -26.8884   13.1828  -23.1098 N   0  0  0  0  0  0  0  0  0  0  0  0
  -27.8927   13.7299  -22.2895 C   0  0  0  0  0  0  0  0  0  0  0  0
  -28.4840   14.8948  -22.6577 N   0  0  0  0  0  0  0  0  0  0  0  0
  -29.4184   15.5288  -21.9572 C   0  0  0  0  0  0  0  0  0  0  0  0
  -30.0066   16.7707  -22.3972 N   0  0  0  0  0  0  0  0  0  0  0  0
  -30.9347   17.6133  -21.6827 C   0  0  0  0  0  0  0  0  0  0  0  0
  -31.6452   18.4190  -22.7242 C   0  0  0  0  0  0  0  0  0  0  0  0
  -31.1297   17.8920  -24.0669 C   0  0  0  0  0  0  0  0  0  0  0  0
  -29.7572   17.4037  -23.6670 C   0  0  1  0  0  0  0  0  0  0  0  0
  -28.8227   18.5859  -23.5281 C   0  0  0  0  0  0  0  0  0  0  0  0
  -27.5192   18.1710  -23.2313 O   0  0  0  0  0  0  0  0  0  0  0  0
  -29.7930   14.9601  -20.8030 N   0  0  0  0  0  0  0  0  0  0  0  0
  -29.2615   13.8128  -20.3666 C   0  0  0  0  0  0  0  0  0  0  0  0
  -28.2737   13.1373  -21.1016 C   0  0  0  0  0  0  0  0  0  0  0  0
  -27.7450   11.8918  -20.6082 C   0  0  0  0  0  0  0  0  0  0  0  0
  -27.2699   11.0171  -21.3569 O   0  0  0  0  0  0  0  0  0  0  0  0
  -27.7461   11.6123  -19.2262 N   0  0  0  0  0  0  0  0  0  0  0  0
  -27.3227   10.2859  -18.7879 C   0  0  0  0  0  0  0  0  0  0  0  0
  -28.4258    9.3501  -19.0647 C   0  0  0  0  0  0  0  0  0  0  0  0
  -29.6354    9.6295  -18.5111 N   0  0  0  0  0  0  0  0  0  0  0  0
  -30.6709    8.7905  -18.7430 C   0  0  0  0  0  0  0  0  0  0  0  0
  -30.5256    7.6639  -19.5249 C   0  0  0  0  0  0  0  0  0  0  0  0
  -29.2584    7.4361  -20.0624 C   0  0  0  0  0  0  0  0  0  0  0  0
  -28.2275    8.2765  -19.8283 N   0  0  0  0  0  0  0  0  0  0  0  0
  -24.5449   14.9854  -23.5845 C   0  0  0  0  0  0  0  0  0  0  0  0
  -23.7616   16.1400  -23.6456 C   0  0  0  0  0  0  0  0  0  0  0  0
  -22.3420   16.2551  -22.6214 Cl  0  0  0  0  0  0  0  0  0  0  0  0
  1  2  1  0
  2  3  1  0
  3  4  2  0
  4  5  1  0
  5  6  2  0
  6  7  1  0
  7  8  1  0
  8  9  1  0
  9 10  2  0
 10 11  1  0
 11 12  1  0
 12 13  1  0
 13 14  1  0
 14 15  1  0
 15 16  1  0
 16 17  1  1
 17 18  1  0
 11 19  2  0
 19 20  1  0
 20 21  2  0
 21 22  1  0
 22 23  2  0
 22 24  1  0
 24 25  1  0
 25 26  1  0
 26 27  2  0
 27 28  1  0
 28 29  2  0
 29 30  1  0
 30 31  2  0
  6 32  1  0
 32 33  2  0
 33 34  1  0
 33  3  1  0
 21  9  1  0
 31 26  1  0
 16 12  1  0
M  END
$$$$
