
     RDKit          3D

 36 39  0  0  0  0  0  0  0  0999 V2000
  -18.1304   35.3131  -21.5379 C   0  0  0  0  0  0  0  0  0  0  0  0
  -18.3391   36.3285  -22.6403 C   0  0  0  0  0  0  0  0  0  0  0  0
  -19.5321   37.1940  -22.2973 C   0  0  0  0  0  0  0  0  0  0  0  0
  -19.0718   38.5472  -21.8158 C   0  0  0  0  0  0  0  0  0  0  0  0
  -17.8519   38.8066  -21.6811 O   0  0  0  0  0  0  0  0  0  0  0  0
  -19.9898   39.5252  -21.5147 O   0  0  0  0  0  0  0  0  0  0  0  0
  -19.9975   40.8585  -21.9197 C   0  0  2  0  0  0  0  0  0  0  0  0
  -21.2619   41.3471  -22.4974 C   0  0  0  0  0  0  0  0  0  0  0  0
  -21.7862   42.3253  -22.0237 O   0  0  0  0  0  0  0  0  0  0  0  0
  -21.9198   40.7138  -23.6283 C   0  0  0  0  0  0  0  0  0  0  0  0
  -23.3212   41.1049  -23.7091 O   0  0  0  0  0  0  0  0  0  0  0  0
  -23.6862   42.3135  -24.2394 C   0  0  0  0  0  0  0  0  0  0  0  0
  -25.0853   42.8257  -24.2069 C   0  0  0  0  0  0  0  0  0  0  0  0
  -22.8142   43.0381  -24.7828 O   0  0  0  0  0  0  0  0  0  0  0  0
  -19.0473   40.9519  -23.1562 C   0  0  0  0  0  0  0  0  0  0  0  0
  -18.4624   42.3656  -23.0058 C   0  0  0  0  0  0  0  0  0  0  0  0
  -18.1730   42.2845  -21.5501 C   0  0  1  0  0  0  0  0  0  0  0  0
  -17.6181   43.4476  -20.8547 C   0  0  2  0  0  0  0  0  0  0  0  0
  -16.5921   44.2129  -21.6091 C   0  0  0  0  0  0  0  0  0  0  0  0
  -15.8478   45.2126  -20.7839 C   0  0  2  0  0  0  0  0  0  0  0  0
  -14.6478   45.4713  -21.4159 F   0  0  0  0  0  0  0  0  0  0  0  0
  -15.6512   44.7892  -19.3743 C   0  0  0  0  0  0  0  0  0  0  0  0
  -14.5458   45.1585  -18.7848 C   0  0  0  0  0  0  0  0  0  0  0  0
  -14.2460   44.8027  -17.4091 C   0  0  0  0  0  0  0  0  0  0  0  0
  -13.1702   45.1704  -16.8558 O   0  0  0  0  0  0  0  0  0  0  0  0
  -15.2362   44.0070  -16.6996 C   0  0  0  0  0  0  0  0  0  0  0  0
  -16.3550   43.6337  -17.3061 C   0  0  0  0  0  0  0  0  0  0  0  0
  -16.7063   43.9523  -18.6751 C   0  0  1  0  0  0  0  0  0  0  0  0
  -17.8904   44.9357  -18.5789 C   0  0  0  0  0  0  0  0  0  0  0  0
  -16.9237   42.8324  -19.6213 C   0  0  2  0  0  0  0  0  0  0  0  0
  -15.5968   42.5621  -20.0987 F   0  0  0  0  0  0  0  0  0  0  0  0
  -17.4661   41.5483  -19.2277 C   0  0  1  0  0  0  0  0  0  0  0  0
  -17.3533   41.2307  -17.8724 O   0  0  0  0  0  0  0  0  0  0  0  0
  -18.8443   41.1070  -19.6332 C   0  0  0  0  0  0  0  0  0  0  0  0
  -19.3976   41.7249  -20.8626 C   0  0  2  0  0  0  0  0  0  0  0  0
  -20.3675   42.7971  -20.3926 C   0  0  0  0  0  0  0  0  0  0  0  0
  1  2  1  0
  2  3  1  0
  3  4  1  0
  4  5  2  0
  4  6  1  0
  7  6  1  1
  7  8  1  0
  8  9  2  0
  8 10  1  0
 10 11  1  0
 11 12  1  0
 12 13  1  0
 12 14  2  0
  7 15  1  0
 15 16  1  0
 17 16  1  6
 17 18  1  0
 18 19  1  6
 19 20  1  0
 20 21  1  6
 20 22  1  0
 22 23  2  0
 23 24  1  0
 24 25  2  0
 24 26  1  0
 26 27  2  0
 27 28  1  0
 28 29  1  1
 28 30  1  0
 30 31  1  6
 30 32  1  0
 32 33  1  1
 32 34  1  0
 34 35  1  0
 35 36  1  1
 35  7  1  0
 35 17  1  0
 30 18  1  0
 28 22  1  0
M  END
$$$$
