
     RDKit          3D

 38 43  0  0  0  0  0  0  0  0999 V2000
  -20.0935   43.4307  -22.0620 C   0  0  0  0  0  0  0  0  0  0  0  0
  -19.4262   42.1093  -22.5569 C   0  0  1  0  0  0  0  0  0  0  0  0
  -19.2979   42.0290  -23.9911 C   0  0  0  0  0  0  0  0  0  0  0  0
  -18.5823   43.0181  -24.7908 C   0  0  0  0  0  0  0  0  0  0  0  0
  -18.8235   42.9185  -26.2724 C   0  0  0  0  0  0  0  0  0  0  0  0
  -20.3014   42.8728  -26.6018 C   0  0  0  0  0  0  0  0  0  0  0  0
  -20.7637   41.5670  -25.9511 C   0  0  0  0  0  0  0  0  0  0  0  0
  -20.7584   41.8155  -24.4974 C   0  0  0  0  0  0  0  0  0  0  0  0
  -18.4146   41.7719  -21.5848 N   0  0  0  0  0  0  0  0  0  0  0  0
  -18.1378   40.5180  -21.0059 C   0  0  0  0  0  0  0  0  0  0  0  0
  -18.9798   39.3522  -21.3366 C   0  0  0  0  0  0  0  0  0  0  0  0
  -20.2494   39.4761  -20.7090 C   0  0  0  0  0  0  0  0  0  0  0  0
  -21.2464   38.6199  -21.0687 C   0  0  0  0  0  0  0  0  0  0  0  0
  -21.0672   37.7241  -21.9342 C   0  0  0  0  0  0  0  0  0  0  0  0
  -19.8317   37.4812  -22.6303 C   0  0  0  0  0  0  0  0  0  0  0  0
  -18.8114   38.4000  -22.2297 C   0  0  0  0  0  0  0  0  0  0  0  0
  -17.0709   38.1339  -23.0262 Br  0  0  0  0  0  0  0  0  0  0  0  0
  -22.2847   37.0256  -22.0953 O   0  0  0  0  0  0  0  0  0  0  0  0
  -23.1935   37.5010  -21.1247 C   0  0  0  0  0  0  0  0  0  0  0  0
  -22.5902   38.6346  -20.5200 O   0  0  0  0  0  0  0  0  0  0  0  0
  -17.2443   40.7986  -20.1430 N   0  0  0  0  0  0  0  0  0  0  0  0
  -16.8736   42.1023  -20.0495 C   0  0  0  0  0  0  0  0  0  0  0  0
  -16.0209   42.7177  -19.1434 C   0  0  0  0  0  0  0  0  0  0  0  0
  -15.9607   44.0681  -19.2055 C   0  0  0  0  0  0  0  0  0  0  0  0
  -15.1862   44.8231  -18.2481 C   0  0  0  0  0  0  0  0  0  0  0  0
  -15.7163   45.9241  -17.8785 O   0  0  0  0  0  0  0  0  0  0  0  0
  -13.9056   44.4925  -17.6559 N   0  0  0  0  0  0  0  0  0  0  0  0
  -13.5687   45.2695  -16.4941 C   0  0  0  0  0  0  0  0  0  0  0  0
  -12.1760   45.1654  -16.1870 C   0  0  0  0  0  0  0  0  0  0  0  0
  -11.7203   45.5484  -14.9429 C   0  0  0  0  0  0  0  0  0  0  0  0
  -12.6089   46.0104  -14.0742 C   0  0  0  0  0  0  0  0  0  0  0  0
  -12.2044   45.8186  -12.5296 C   0  0  0  0  0  0  0  0  0  0  0  0
  -11.9101   45.6614  -11.3257 N   0  0  0  0  0  0  0  0  0  0  0  0
  -13.9229   46.1698  -14.2811 C   0  0  0  0  0  0  0  0  0  0  0  0
  -14.4506   45.7696  -15.5898 C   0  0  0  0  0  0  0  0  0  0  0  0
  -16.7299   44.7607  -20.1849 C   0  0  0  0  0  0  0  0  0  0  0  0
  -17.5663   44.1444  -21.0766 C   0  0  0  0  0  0  0  0  0  0  0  0
  -17.6403   42.6900  -20.9785 C   0  0  0  0  0  0  0  0  0  0  0  0
  2  1  1  6
  2  3  1  0
  3  4  1  0
  4  5  1  0
  5  6  1  0
  6  7  1  0
  7  8  1  0
  2  9  1  0
  9 10  1  0
 10 11  1  0
 11 12  2  0
 12 13  1  0
 13 14  2  0
 14 15  1  0
 15 16  2  0
 16 17  1  0
 14 18  1  0
 18 19  1  0
 19 20  1  0
 10 21  2  0
 21 22  1  0
 22 23  2  0
 23 24  1  0
 24 25  1  0
 25 26  2  0
 25 27  1  0
 27 28  1  0
 28 29  2  0
 29 30  1  0
 30 31  2  0
 31 32  1  0
 32 33  3  0
 31 34  1  0
 34 35  2  0
 24 36  2  0
 36 37  1  0
 37 38  2  0
  8  3  1  0
 38  9  1  0
 16 11  1  0
 38 22  1  0
 20 13  1  0
 35 28  1  0
M  END
$$$$
