
     RDKit          3D

 37 41  0  0  0  0  0  0  0  0999 V2000
  -21.4028   47.2663  -30.0709 C   0  0  0  0  0  0  0  0  0  0  0  0
  -20.4374   46.9940  -28.9387 C   0  0  0  0  0  0  0  0  0  0  0  0
  -20.9118   45.8398  -28.2093 N   0  0  0  0  0  0  0  0  0  0  0  0
  -22.0061   46.1590  -27.3256 C   0  0  0  0  0  0  0  0  0  0  0  0
  -21.8462   45.5795  -25.9496 C   0  0  0  0  0  0  0  0  0  0  0  0
  -20.5265   45.9057  -25.3276 C   0  0  0  0  0  0  0  0  0  0  0  0
  -20.3838   45.1832  -24.0650 N   0  0  0  0  0  0  0  0  0  0  0  0
  -20.5109   45.7344  -22.8283 C   0  0  0  0  0  0  0  0  0  0  0  0
  -20.3107   44.7495  -21.8505 C   0  0  0  0  0  0  0  0  0  0  0  0
  -20.3777   44.9607  -20.4020 C   0  0  0  0  0  0  0  0  0  0  0  0
  -20.5148   43.7090  -19.6788 N   0  0  0  0  0  0  0  0  0  0  0  0
  -19.3482   42.9394  -19.4211 C   0  0  0  0  0  0  0  0  0  0  0  0
  -19.3506   41.6230  -19.1038 C   0  0  0  0  0  0  0  0  0  0  0  0
  -18.1908   40.8753  -18.8019 C   0  0  0  0  0  0  0  0  0  0  0  0
  -18.2801   39.1951  -18.4055 Cl  0  0  0  0  0  0  0  0  0  0  0  0
  -16.9683   41.5329  -18.8342 C   0  0  0  0  0  0  0  0  0  0  0  0
  -15.8306   40.8876  -18.5436 N   0  0  0  0  0  0  0  0  0  0  0  0
  -14.6276   41.4875  -18.5462 C   0  0  0  0  0  0  0  0  0  0  0  0
  -14.5648   42.8560  -18.8686 C   0  0  0  0  0  0  0  0  0  0  0  0
  -13.3099   43.5633  -18.8891 C   0  0  0  0  0  0  0  0  0  0  0  0
  -12.2803   44.1217  -18.9073 N   0  0  0  0  0  0  0  0  0  0  0  0
  -15.7018   43.5243  -19.1644 C   0  0  0  0  0  0  0  0  0  0  0  0
  -15.7562   44.9295  -19.4745 N   0  0  0  0  0  0  0  0  0  0  0  0
  -15.1126   45.7920  -18.5219 C   0  0  0  0  0  0  0  0  0  0  0  0
  -15.1529   47.1564  -18.6768 C   0  0  0  0  0  0  0  0  0  0  0  0
  -14.5623   48.0051  -17.7752 C   0  0  0  0  0  0  0  0  0  0  0  0
  -13.8889   47.5119  -16.6508 C   0  0  0  0  0  0  0  0  0  0  0  0
  -13.3301   48.4009  -15.7879 F   0  0  0  0  0  0  0  0  0  0  0  0
  -13.8548   46.1557  -16.5070 C   0  0  0  0  0  0  0  0  0  0  0  0
  -13.0210   45.4787  -15.1095 Cl  0  0  0  0  0  0  0  0  0  0  0  0
  -14.4384   45.2940  -17.3978 C   0  0  0  0  0  0  0  0  0  0  0  0
  -16.9584   42.8990  -19.1639 C   0  0  0  0  0  0  0  0  0  0  0  0
  -18.1088   43.5775  -19.4475 C   0  0  0  0  0  0  0  0  0  0  0  0
  -20.0668   43.6224  -22.5509 N   0  0  0  0  0  0  0  0  0  0  0  0
  -20.1193   43.9258  -23.8218 N   0  0  0  0  0  0  0  0  0  0  0  0
  -19.4095   45.5520  -26.2722 C   0  0  0  0  0  0  0  0  0  0  0  0
  -19.9012   45.0391  -27.6104 C   0  0  0  0  0  0  0  0  0  0  0  0
  1  2  1  0
  2  3  1  0
  3  4  1  0
  4  5  1  0
  5  6  1  0
  6  7  1  0
  7  8  1  0
  8  9  2  0
  9 10  1  0
 10 11  1  0
 11 12  1  0
 12 13  2  0
 13 14  1  0
 14 15  1  0
 14 16  2  0
 16 17  1  0
 17 18  2  0
 18 19  1  0
 19 20  1  0
 20 21  3  0
 19 22  2  0
 22 23  1  0
 23 24  1  0
 24 25  2  0
 25 26  1  0
 26 27  2  0
 27 28  1  0
 27 29  1  0
 29 30  1  0
 29 31  2  0
 22 32  1  0
 32 33  2  0
  9 34  1  0
 34 35  2  0
  6 36  1  0
 36 37  1  0
 37  3  1  0
 35  7  1  0
 33 12  1  0
 32 16  1  0
 31 24  1  0
M  END
$$$$
