
     RDKit          3D

 25 25  0  0  0  0  0  0  0  0999 V2000
  -16.7652   -7.6795  -30.0990 C   0  0  0  0  0  0  0  0  0  0  0  0
  -15.9891   -6.4002  -29.8469 C   0  0  0  0  0  0  0  0  0  0  0  0
  -16.7851   -5.2600  -29.7481 N   0  0  0  0  0  0  0  0  0  0  0  0
  -17.6541   -5.0741  -28.6640 C   0  0  0  0  0  0  0  0  0  0  0  0
  -16.8230   -4.8460  -27.3930 C   0  0  0  0  0  0  0  0  0  0  0  0
  -16.6929   -4.2846  -30.7559 C   0  0  0  0  0  0  0  0  0  0  0  0
  -15.3189   -3.6147  -30.6571 C   0  0  0  0  0  0  0  0  0  0  0  0
  -15.2162   -2.6149  -31.6586 O   0  0  0  0  0  0  0  0  0  0  0  0
  -16.0395   -1.5272  -31.6008 C   0  0  0  0  0  0  0  0  0  0  0  0
  -16.8497   -1.4750  -30.6209 O   0  0  0  0  0  0  0  0  0  0  0  0
  -16.0453   -0.4342  -32.5955 C   0  0  0  0  0  0  0  0  0  0  0  0
  -16.1977   -1.0389  -34.0031 C   0  0  0  0  0  0  0  0  0  0  0  0
  -14.7947    0.3204  -32.5561 C   0  0  0  0  0  0  0  0  0  0  0  0
  -14.7555    1.7024  -32.6114 C   0  0  0  0  0  0  0  0  0  0  0  0
  -13.5596    2.3644  -32.5853 C   0  0  0  0  0  0  0  0  0  0  0  0
  -12.3489    1.6987  -32.5030 C   0  0  0  0  0  0  0  0  0  0  0  0
  -12.3600    0.3302  -32.4477 C   0  0  0  0  0  0  0  0  0  0  0  0
  -13.5877   -0.3402  -32.4761 C   0  0  0  0  0  0  0  0  0  0  0  0
  -17.2329    0.3961  -32.2729 C   0  0  0  0  0  0  0  0  0  0  0  0
  -17.2202    1.1955  -31.1619 C   0  0  0  0  0  0  0  0  0  0  0  0
  -18.3606    1.9310  -30.8824 C   0  0  0  0  0  0  0  0  0  0  0  0
  -19.4815    1.8753  -31.6829 C   0  0  0  0  0  0  0  0  0  0  0  0
  -19.4903    1.0717  -32.7996 C   0  0  0  0  0  0  0  0  0  0  0  0
  -18.3386    0.3374  -33.0690 C   0  0  0  0  0  0  0  0  0  0  0  0
  -16.3184   -2.5938  -30.9862 Cl  0  0  0  0  0  0  0  0  0  0  0  0
  1  2  1  0
  2  3  1  0
  3  4  1  0
  4  5  1  0
  3  6  1  0
  6  7  1  0
  7  8  1  0
  8  9  1  0
  9 10  2  0
  9 11  1  0
 11 12  1  0
 11 13  1  0
 13 14  2  0
 14 15  1  0
 15 16  2  0
 16 17  1  0
 17 18  2  0
 11 19  1  0
 19 20  2  0
 20 21  1  0
 21 22  2  0
 22 23  1  0
 23 24  2  0
 18 13  1  0
 24 19  1  0
M  END
$$$$
