
     RDKit          3D

 32 36  0  0  0  0  0  0  0  0999 V2000
  -23.9573   14.9614  -30.6329 C   0  0  0  0  0  0  0  0  0  0  0  0
  -23.4138   14.6194  -29.3922 O   0  0  0  0  0  0  0  0  0  0  0  0
  -24.2008   14.1923  -28.3181 C   0  0  0  0  0  0  0  0  0  0  0  0
  -25.5772   14.2293  -28.3846 C   0  0  0  0  0  0  0  0  0  0  0  0
  -26.3685   13.8044  -27.3160 C   0  0  0  0  0  0  0  0  0  0  0  0
  -25.7997   13.3313  -26.1529 C   0  0  0  0  0  0  0  0  0  0  0  0
  -26.6295   12.8717  -24.9973 C   0  0  0  0  0  0  0  0  0  0  0  0
  -25.7898   12.4240  -23.8759 C   0  0  0  0  0  0  0  0  0  0  0  0
  -24.7536   13.3199  -23.4411 C   0  0  0  0  0  0  0  0  0  0  0  0
  -23.9124   14.0535  -23.1066 N   0  0  0  0  0  0  0  0  0  0  0  0
  -25.9761   11.2625  -23.2986 C   0  0  0  0  0  0  0  0  0  0  0  0
  -25.0953   10.9234  -22.2077 N   0  0  0  0  0  0  0  0  0  0  0  0
  -26.9642   10.4132  -23.7167 O   0  0  0  0  0  0  0  0  0  0  0  0
  -27.8065   10.7540  -24.7708 C   0  0  0  0  0  0  0  0  0  0  0  0
  -27.6779   11.9038  -25.3977 C   0  0  0  0  0  0  0  0  0  0  0  0
  -28.6003   12.1913  -26.4910 C   0  0  0  0  0  0  0  0  0  0  0  0
  -29.0173   13.3554  -26.6488 O   0  0  0  0  0  0  0  0  0  0  0  0
  -29.0057   11.0800  -27.3757 C   0  0  0  0  0  0  0  0  0  0  0  0
  -29.1644    9.7812  -26.6706 C   0  0  0  0  0  0  0  0  0  0  0  0
  -28.2953    8.7369  -27.3073 C   0  0  0  0  0  0  0  0  0  0  0  0
  -26.9216    8.7768  -27.2271 C   0  0  0  0  0  0  0  0  0  0  0  0
  -26.1016    7.8074  -27.7981 C   0  0  0  0  0  0  0  0  0  0  0  0
  -26.6608    6.7672  -28.4687 C   0  0  0  0  0  0  0  0  0  0  0  0
  -28.0475    6.6763  -28.5817 C   0  0  0  0  0  0  0  0  0  0  0  0
  -28.6152    5.6287  -29.2634 C   0  0  0  0  0  0  0  0  0  0  0  0
  -29.9766    5.4898  -29.4121 C   0  0  0  0  0  0  0  0  0  0  0  0
  -30.7692    6.4574  -28.8422 C   0  0  0  0  0  0  0  0  0  0  0  0
  -30.1874    7.5170  -28.1523 C   0  0  0  0  0  0  0  0  0  0  0  0
  -28.8382    7.6519  -28.0060 C   0  0  0  0  0  0  0  0  0  0  0  0
  -28.8751    9.8117  -25.2036 C   0  0  0  0  0  0  0  0  0  0  0  0
  -24.4237   13.2933  -26.0836 C   0  0  0  0  0  0  0  0  0  0  0  0
  -23.6428   13.7180  -27.1517 C   0  0  0  0  0  0  0  0  0  0  0  0
  1  2  1  0
  2  3  1  0
  3  4  2  0
  4  5  1  0
  5  6  2  0
  6  7  1  0
  7  8  1  0
  8  9  1  0
  9 10  3  0
  8 11  2  0
 11 12  1  0
 11 13  1  0
 13 14  1  0
 14 15  2  0
 15 16  1  0
 16 17  2  0
 16 18  1  0
 18 19  1  0
 19 20  1  0
 20 21  2  0
 21 22  1  0
 22 23  2  0
 23 24  1  0
 24 25  2  0
 25 26  1  0
 26 27  2  0
 27 28  1  0
 28 29  2  0
 19 30  1  0
  6 31  1  0
 31 32  2  0
 32  3  1  0
 15  7  1  0
 29 20  1  0
 30 14  1  0
 29 24  1  0
M  END
$$$$
