
     RDKit          3D

 43 48  0  0  0  0  0  0  0  0999 V2000
  -30.7352   15.6603  -18.8411 C   0  0  0  0  0  0  0  0  0  0  0  0
  -30.9888   14.2078  -18.7550 C   0  0  0  0  0  0  0  0  0  0  0  0
  -30.3927   13.2117  -19.4879 C   0  0  0  0  0  0  0  0  0  0  0  0
  -30.9036   12.0277  -19.1094 N   0  0  0  0  0  0  0  0  0  0  0  0
  -30.5525   10.7277  -19.6418 C   0  0  0  0  0  0  0  0  0  0  0  0
  -31.5489   10.2504  -20.6596 C   0  0  0  0  0  0  0  0  0  0  0  0
  -30.8803   10.0798  -21.9177 N   0  0  0  0  0  0  0  0  0  0  0  0
  -31.7704    9.9240  -23.0277 C   0  0  0  0  0  0  0  0  0  0  0  0
  -31.0378    9.5525  -24.3069 C   0  0  0  0  0  0  0  0  0  0  0  0
  -29.6308    9.8612  -24.2018 N   0  0  0  0  0  0  0  0  0  0  0  0
  -28.6713    9.0081  -24.7688 C   0  0  0  0  0  0  0  0  0  0  0  0
  -29.0040    7.6615  -24.8811 C   0  0  0  0  0  0  0  0  0  0  0  0
  -28.1521    6.7492  -25.4614 C   0  0  0  0  0  0  0  0  0  0  0  0
  -26.9399    7.1751  -25.9443 C   0  0  0  0  0  0  0  0  0  0  0  0
  -26.6076    8.5008  -25.8356 C   0  0  0  0  0  0  0  0  0  0  0  0
  -27.4725    9.4327  -25.2438 C   0  0  0  0  0  0  0  0  0  0  0  0
  -27.0677   10.8101  -25.1030 C   0  0  0  0  0  0  0  0  0  0  0  0
  -27.9906   11.8054  -25.4176 C   0  0  0  0  0  0  0  0  0  0  0  0
  -27.7229   13.1436  -25.3148 C   0  0  0  0  0  0  0  0  0  0  0  0
  -28.6958   14.1292  -25.6474 C   0  0  0  0  0  0  0  0  0  0  0  0
  -29.5016   14.9262  -25.9043 N   0  0  0  0  0  0  0  0  0  0  0  0
  -26.4676   13.5194  -24.8754 C   0  0  0  0  0  0  0  0  0  0  0  0
  -25.5023   12.5606  -24.5463 C   0  0  0  0  0  0  0  0  0  0  0  0
  -24.2085   13.0154  -24.0703 C   0  0  0  0  0  0  0  0  0  0  0  0
  -23.2320   12.1975  -23.9839 O   0  0  0  0  0  0  0  0  0  0  0  0
  -23.9197   14.3504  -23.6732 N   0  0  0  0  0  0  0  0  0  0  0  0
  -23.8180   14.7926  -22.2987 C   0  0  0  0  0  0  0  0  0  0  0  0
  -22.5073   14.3613  -21.7426 C   0  0  0  0  0  0  0  0  0  0  0  0
  -22.2550   14.8265  -20.3171 C   0  0  0  0  0  0  0  0  0  0  0  0
  -20.9229   14.3505  -19.9885 N   0  0  0  0  0  0  0  0  0  0  0  0
  -19.9238   14.9754  -20.8376 C   0  0  0  0  0  0  0  0  0  0  0  0
  -18.7816   15.3931  -19.9684 C   0  0  0  0  0  0  0  0  0  0  0  0
  -19.0120   14.6086  -18.6941 C   0  0  0  0  0  0  0  0  0  0  0  0
  -20.5279   14.5590  -18.6354 C   0  0  0  0  0  0  0  0  0  0  0  0
  -25.8341   11.2407  -24.6718 C   0  0  0  0  0  0  0  0  0  0  0  0
  -29.2413   11.0512  -23.5016 C   0  0  0  0  0  0  0  0  0  0  0  0
  -29.7581   10.9290  -22.0997 C   0  0  0  0  0  0  0  0  0  0  0  0
  -31.8165   12.2618  -18.1443 C   0  0  0  0  0  0  0  0  0  0  0  0
  -32.6090   11.3759  -17.4372 C   0  0  0  0  0  0  0  0  0  0  0  0
  -33.4799   11.8652  -16.4805 C   0  0  0  0  0  0  0  0  0  0  0  0
  -33.5403   13.2254  -16.2522 C   0  0  0  0  0  0  0  0  0  0  0  0
  -32.7657   14.1292  -16.9392 C   0  0  0  0  0  0  0  0  0  0  0  0
  -31.9052   13.6178  -17.8870 C   0  0  0  0  0  0  0  0  0  0  0  0
  1  2  1  0
  2  3  2  0
  3  4  1  0
  4  5  1  0
  5  6  1  0
  6  7  1  0
  7  8  1  0
  8  9  1  0
  9 10  1  0
 10 11  1  0
 11 12  2  0
 12 13  1  0
 13 14  2  0
 14 15  1  0
 15 16  2  0
 16 17  1  0
 17 18  2  0
 18 19  1  0
 19 20  1  0
 20 21  3  0
 19 22  2  0
 22 23  1  0
 23 24  1  0
 24 25  2  0
 24 26  1  0
 26 27  1  0
 27 28  1  0
 28 29  1  0
 29 30  1  0
 30 31  1  0
 31 32  1  0
 32 33  1  0
 33 34  1  0
 23 35  2  0
 10 36  1  0
 36 37  1  0
  4 38  1  0
 38 39  2  0
 39 40  1  0
 40 41  2  0
 41 42  1  0
 42 43  2  0
 43  2  1  0
 37  7  1  0
 43 38  1  0
 16 11  1  0
 35 17  1  0
 34 30  1  0
M  END
$$$$
