
     RDKit          3D

 22 24  0  0  0  0  0  0  0  0999 V2000
  -21.4912   42.9192  -23.1485 C   0  0  0  0  0  0  0  0  0  0  0  0
  -20.2410   43.6091  -22.7686 C   0  0  0  0  0  0  0  0  0  0  0  0
  -19.8830   44.8499  -22.8677 O   0  0  0  0  0  0  0  0  0  0  0  0
  -18.6611   45.0394  -22.3998 N   0  0  0  0  0  0  0  0  0  0  0  0
  -18.1753   43.8648  -21.9647 C   0  0  0  0  0  0  0  0  0  0  0  0
  -16.8645   43.6580  -21.3805 C   0  0  0  0  0  0  0  0  0  0  0  0
  -16.4168   44.4400  -20.3218 C   0  0  0  0  0  0  0  0  0  0  0  0
  -15.1860   44.2901  -19.7276 C   0  0  0  0  0  0  0  0  0  0  0  0
  -14.3405   43.3167  -20.1960 C   0  0  0  0  0  0  0  0  0  0  0  0
  -14.7446   42.5045  -21.2586 C   0  0  0  0  0  0  0  0  0  0  0  0
  -15.9881   42.6922  -21.8226 C   0  0  0  0  0  0  0  0  0  0  0  0
  -19.1514   42.9484  -22.1860 C   0  0  0  0  0  0  0  0  0  0  0  0
  -19.0371   41.5307  -21.8570 C   0  0  0  0  0  0  0  0  0  0  0  0
  -19.0515   40.5518  -22.8352 C   0  0  0  0  0  0  0  0  0  0  0  0
  -18.9429   39.2061  -22.5262 C   0  0  0  0  0  0  0  0  0  0  0  0
  -18.8151   38.7877  -21.2189 C   0  0  0  0  0  0  0  0  0  0  0  0
  -18.6755   37.1033  -20.7814 S   0  0  0  0  0  6  0  0  0  0  0  0
  -17.1323   36.4588  -21.2084 N   0  0  0  0  0  0  0  0  0  0  0  0
  -18.8688   36.8832  -19.3169 O   0  0  0  0  0  0  0  0  0  0  0  0
  -19.7117   36.2683  -21.4943 O   0  0  0  0  0  0  0  0  0  0  0  0
  -18.7994   39.7531  -20.2369 C   0  0  0  0  0  0  0  0  0  0  0  0
  -18.9085   41.0968  -20.5530 C   0  0  0  0  0  0  0  0  0  0  0  0
  1  2  1  0
  2  3  1  0
  3  4  1  0
  4  5  2  0
  5  6  1  0
  6  7  2  0
  7  8  1  0
  8  9  2  0
  9 10  1  0
 10 11  2  0
  5 12  1  0
 12 13  1  0
 13 14  2  0
 14 15  1  0
 15 16  2  0
 16 17  1  0
 17 18  1  0
 17 19  2  0
 17 20  2  0
 16 21  1  0
 21 22  2  0
 12  2  2  0
 22 13  1  0
 11  6  1  0
M  END
$$$$
