
     RDKit          3D

 19 17  0  0  0  0  0  0  0  0999 V2000
  -16.7033   13.9335  -29.5719 Br  0  0  0  0  0  0  0  0  0  0  0  0
  -16.7025   13.9332  -29.5716 Br  0  0  0  0  0  0  0  0  0  0  0  0
  -21.3110   15.6190  -30.0600 C   0  0  0  0  0  0  0  0  0  0  0  0
  -20.9222   14.8011  -31.1620 N   0  0  0  0  0  0  0  0  0  0  0  0
  -21.7889   14.7897  -32.2868 C   0  0  0  0  0  0  0  0  0  0  0  0
  -19.5741   15.0444  -31.5553 C   0  0  0  0  0  0  0  0  0  0  0  0
  -18.6677   14.5134  -30.4328 C   0  0  0  0  0  0  0  0  0  0  0  0
  -17.3313   14.7701  -30.8394 N   0  0  0  0  0  0  0  0  0  0  0  0
  -17.0464   16.1664  -30.8442 C   0  0  0  0  0  0  0  0  0  0  0  0
  -16.3440   13.9257  -30.2746 C   0  0  0  0  0  0  0  0  0  0  0  0
  -16.1260   14.1136  -28.7912 C   0  0  0  0  0  0  0  0  0  0  0  0
  -15.0551   13.2043  -28.3269 C   0  0  0  0  0  0  0  0  0  0  0  0
  -15.3453   11.9402  -27.8870 C   0  0  0  0  0  0  0  0  0  0  0  0
  -14.3423   11.0714  -27.4578 C   0  0  0  0  0  0  0  0  0  0  0  0
  -13.0211   11.4783  -27.4679 C   0  0  0  0  0  0  0  0  0  0  0  0
  -11.7638   10.3894  -26.9193 Cl  0  0  0  0  0  0  0  0  0  0  0  0
  -12.7293   12.7440  -27.9073 C   0  0  0  0  0  0  0  0  0  0  0  0
  -11.0385   13.2549  -27.9302 Cl  0  0  0  0  0  0  0  0  0  0  0  0
  -13.7310   13.5999  -28.3330 C   0  0  0  0  0  0  0  0  0  0  0  0
  3  4  1  0
  4  5  1  0
  4  6  1  0
  6  7  1  0
  7  8  1  0
  8  9  1  0
  8 10  1  0
 10 11  1  0
 11 12  1  0
 12 13  2  0
 13 14  1  0
 14 15  2  0
 15 16  1  0
 15 17  1  0
 17 18  1  0
 17 19  2  0
 19 12  1  0
M  END
$$$$
