
     RDKit          3D

 26 27  0  0  0  0  0  0  0  0999 V2000
  -17.5335   19.4744  -40.1968 Cl  0  0  0  0  0  0  0  0  0  0  0  0
  -15.8456   23.8947  -42.4691 O   0  0  0  0  0  0  0  0  0  0  0  0
  -15.8347   23.1418  -43.4725 C   0  0  0  0  0  0  0  0  0  0  0  0
  -15.4084   23.6699  -44.6764 O   0  0  0  0  0  0  0  0  0  0  0  0
  -16.2700   21.7540  -43.3204 C   0  0  0  0  0  0  0  0  0  0  0  0
  -15.1806   20.7517  -43.6866 C   0  0  0  0  0  0  0  0  0  0  0  0
  -15.9132   19.4166  -43.8766 C   0  0  0  0  0  0  0  0  0  0  0  0
  -17.0839   19.2997  -42.9394 C   0  0  0  0  0  0  0  0  0  0  0  0
  -16.8047   20.0119  -41.7171 N   0  0  0  0  0  0  0  0  0  0  0  0
  -17.8053   19.8098  -40.7054 C   0  0  0  0  0  0  0  0  0  0  0  0
  -17.8605   18.4364  -40.1490 C   0  0  0  0  0  0  0  0  0  0  0  0
  -18.9261   18.3566  -39.1190 C   0  0  0  0  0  0  0  0  0  0  0  0
  -18.8056   18.1333  -37.8424 C   0  0  0  0  0  0  0  0  0  0  0  0
  -20.0383   18.0905  -37.0239 C   0  0  0  0  0  0  0  0  0  0  0  0
  -21.2837   17.8764  -37.5897 C   0  0  0  0  0  0  0  0  0  0  0  0
  -22.4654   17.9191  -36.8745 C   0  0  0  0  0  0  0  0  0  0  0  0
  -22.4483   18.1856  -35.5219 C   0  0  0  0  0  0  0  0  0  0  0  0
  -21.2206   18.3993  -34.9533 C   0  0  0  0  0  0  0  0  0  0  0  0
  -20.0215   18.3561  -35.6852 C   0  0  0  0  0  0  0  0  0  0  0  0
  -17.5440   18.0050  -37.1414 C   0  0  0  0  0  0  0  0  0  0  0  0
  -17.4640   17.1764  -36.0149 C   0  0  0  0  0  0  0  0  0  0  0  0
  -16.3477   17.0533  -35.2323 C   0  0  0  0  0  0  0  0  0  0  0  0
  -15.2150   17.7676  -35.5367 C   0  0  0  0  0  0  0  0  0  0  0  0
  -15.2522   18.5884  -36.6304 C   0  0  0  0  0  0  0  0  0  0  0  0
  -16.3962   18.7079  -37.4211 C   0  0  0  0  0  0  0  0  0  0  0  0
  -16.6974   21.4426  -41.9234 C   0  0  0  0  0  0  0  0  0  0  0  0
  2  3  2  0
  3  4  1  0
  3  5  1  0
  5  6  1  0
  6  7  1  0
  7  8  1  0
  8  9  1  0
  9 10  1  0
 10 11  1  0
 11 12  1  0
 12 13  2  3
 13 14  1  0
 14 15  2  0
 15 16  1  0
 16 17  2  0
 17 18  1  0
 18 19  2  0
 13 20  1  0
 20 21  2  0
 21 22  1  0
 22 23  2  0
 23 24  1  0
 24 25  2  0
  9 26  1  0
 26  5  1  0
 19 14  1  0
 25 20  1  0
M  END
$$$$
