
     RDKit          3D

 17 19  0  0  0  0  0  0  0  0999 V2000
  -24.1818   19.8424  -24.2968 O   0  0  0  0  0  0  0  0  0  0  0  0
  -25.2706   19.6153  -24.8949 C   0  0  0  0  0  0  0  0  0  0  0  0
  -26.1196   18.5802  -24.2902 C   0  0  0  0  0  0  0  0  0  0  0  0
  -25.6931   17.2640  -24.2120 C   0  0  0  0  0  0  0  0  0  0  0  0
  -26.4858   16.2727  -23.6441 C   0  0  0  0  0  0  0  0  0  0  0  0
  -27.7285   16.5749  -23.1394 C   0  0  0  0  0  0  0  0  0  0  0  0
  -28.1768   17.8780  -23.2056 C   0  0  0  0  0  0  0  0  0  0  0  0
  -27.3699   18.8606  -23.7781 C   0  0  0  0  0  0  0  0  0  0  0  0
  -29.4412   17.8725  -22.6263 O   0  0  0  0  0  0  0  0  0  0  0  0
  -29.5733   16.7104  -21.7826 C   0  0  0  0  0  0  0  0  0  0  0  0
  -28.7296   15.8052  -22.5218 O   0  0  0  0  0  0  0  0  0  0  0  0
  -25.6216   20.3211  -26.0583 N   0  0  0  0  0  0  0  0  0  0  0  0
  -24.7303   21.3331  -26.5749 C   0  0  0  0  0  0  0  0  0  0  0  0
  -25.5598   22.3698  -27.3187 C   0  0  0  0  0  0  0  0  0  0  0  0
  -26.1051   21.6949  -28.5517 C   0  0  0  0  0  0  0  0  0  0  0  0
  -26.7351   20.3754  -28.2349 C   0  0  0  0  0  0  0  0  0  0  0  0
  -26.8512   20.0765  -26.7636 C   0  0  0  0  0  0  0  0  0  0  0  0
  1  2  2  0
  2  3  1  0
  3  4  2  0
  4  5  1  0
  5  6  2  0
  6  7  1  0
  7  8  2  0
  7  9  1  0
  9 10  1  0
 10 11  1  0
  2 12  1  0
 12 13  1  0
 13 14  1  0
 14 15  1  0
 15 16  1  0
 16 17  1  0
  8  3  1  0
 17 12  1  0
 11  6  1  0
M  END
$$$$
