
     RDKit          3D

 30 33  0  0  0  0  0  0  0  0999 V2000
   -9.9037   42.7578  -15.0198 C   0  0  0  0  0  0  0  0  0  0  0  0
  -10.8733   43.6648  -15.7221 C   0  0  0  0  0  0  0  0  0  0  0  0
  -11.8148   42.9460  -16.4638 O   0  0  0  0  0  0  0  0  0  0  0  0
  -12.8467   43.5294  -17.1766 C   0  0  0  0  0  0  0  0  0  0  0  0
  -14.1505   43.0652  -17.0652 C   0  0  0  0  0  0  0  0  0  0  0  0
  -15.1524   43.6908  -17.8088 C   0  0  0  0  0  0  0  0  0  0  0  0
  -14.8759   44.7484  -18.6417 C   0  0  0  0  0  0  0  0  0  0  0  0
  -15.9768   45.3644  -19.3754 C   0  0  0  0  0  0  0  0  0  0  0  0
  -16.4203   44.6214  -20.5740 C   0  0  0  0  0  0  0  0  0  0  0  0
  -17.3160   43.5499  -20.4535 C   0  0  0  0  0  0  0  0  0  0  0  0
  -17.7526   42.8199  -21.5132 C   0  0  0  0  0  0  0  0  0  0  0  0
  -18.6936   41.7093  -21.3187 C   0  0  2  0  0  0  0  0  0  0  0  0
  -19.0145   41.5384  -19.9732 O   0  0  0  0  0  0  0  0  0  0  0  0
  -18.9556   40.1875  -19.6970 C   0  0  0  0  0  0  0  0  0  0  0  0
  -18.9051   39.5788  -21.0760 C   0  0  2  0  0  0  0  0  0  0  0  0
  -18.2174   38.2475  -20.9932 C   0  0  0  0  0  0  0  0  0  0  0  0
  -17.9047   37.8212  -22.2828 O   0  0  0  0  0  0  0  0  0  0  0  0
  -18.1544   40.5237  -21.7718 O   0  0  0  0  0  0  0  0  0  0  0  0
  -20.2612   39.5027  -21.7212 C   0  0  1  0  0  0  0  0  0  0  0  0
  -21.0472   38.4909  -21.2249 O   0  0  0  0  0  0  0  0  0  0  0  0
  -20.9505   40.8350  -21.5994 C   0  0  2  0  0  0  0  0  0  0  0  0
  -22.1072   40.8774  -22.3754 O   0  0  0  0  0  0  0  0  0  0  0  0
  -20.0041   41.9300  -22.0462 C   0  0  1  0  0  0  0  0  0  0  0  0
  -20.5318   43.1936  -21.8225 O   0  0  0  0  0  0  0  0  0  0  0  0
  -17.2874   43.1561  -22.7617 C   0  0  0  0  0  0  0  0  0  0  0  0
  -16.4178   44.1855  -22.9399 C   0  0  0  0  0  0  0  0  0  0  0  0
  -15.9858   44.9200  -21.8276 C   0  0  0  0  0  0  0  0  0  0  0  0
  -14.8832   46.2359  -22.1069 Cl  0  0  0  0  0  0  0  0  0  0  0  0
  -13.6040   45.1889  -18.7388 C   0  0  0  0  0  0  0  0  0  0  0  0
  -12.5788   44.6007  -18.0224 C   0  0  0  0  0  0  0  0  0  0  0  0
  1  2  1  0
  2  3  1  0
  3  4  1  0
  4  5  2  0
  5  6  1  0
  6  7  2  0
  7  8  1  0
  8  9  1  0
  9 10  2  0
 10 11  1  0
 12 11  1  1
 12 13  1  0
 13 14  1  0
 14 15  1  0
 15 16  1  1
 16 17  1  0
 15 18  1  0
 15 19  1  0
 19 20  1  1
 19 21  1  0
 21 22  1  6
 21 23  1  0
 23 24  1  1
 11 25  2  0
 25 26  1  0
 26 27  2  0
 27 28  1  0
  7 29  1  0
 29 30  2  0
 30  4  1  0
 27  9  1  0
 18 12  1  0
 23 12  1  0
M  END
$$$$
