
     RDKit          3D

 39 44  0  0  0  0  0  0  0  0999 V2000
  -22.4098   42.9347  -27.6616 C   0  0  0  0  0  0  0  0  0  0  0  0
  -22.7784   41.8143  -26.7204 C   0  0  1  0  0  0  0  0  0  0  0  0
  -21.8178   41.5920  -25.6116 C   0  0  0  0  0  0  0  0  0  0  0  0
  -21.9806   42.4068  -24.4496 N   0  0  0  0  0  0  0  0  0  0  0  0
  -20.8193   43.2650  -24.3609 C   0  0  0  0  0  0  0  0  0  0  0  0
  -19.8651   42.8402  -23.3047 C   0  0  0  0  0  0  0  0  0  0  0  0
  -18.9863   41.9444  -23.5523 O   0  0  0  0  0  0  0  0  0  0  0  0
  -19.8761   43.3897  -22.0006 N   0  0  0  0  0  0  0  0  0  0  0  0
  -18.7558   43.2560  -21.1504 C   0  0  0  0  0  0  0  0  0  0  0  0
  -18.8688   42.9353  -19.8129 C   0  0  0  0  0  0  0  0  0  0  0  0
  -17.7049   42.8214  -19.0367 C   0  0  0  0  0  0  0  0  0  0  0  0
  -16.4776   43.0195  -19.5741 C   0  0  0  0  0  0  0  0  0  0  0  0
  -16.3280   43.3414  -20.9123 C   0  0  0  0  0  0  0  0  0  0  0  0
  -17.4641   43.4483  -21.6490 C   0  0  0  0  0  0  0  0  0  0  0  0
  -14.9908   43.5280  -21.4969 C   0  0  0  0  0  0  0  0  0  0  0  0
  -14.1147   44.4202  -20.7251 C   0  0  0  0  0  0  0  0  0  0  0  0
  -13.3886   45.4359  -21.3434 C   0  0  0  0  0  0  0  0  0  0  0  0
  -12.5635   46.2322  -20.5920 C   0  0  0  0  0  0  0  0  0  0  0  0
  -12.4479   46.0380  -19.2419 C   0  0  0  0  0  0  0  0  0  0  0  0
  -13.1699   45.0154  -18.5693 C   0  0  0  0  0  0  0  0  0  0  0  0
  -12.9769   44.8684  -17.1501 C   0  0  0  0  0  0  0  0  0  0  0  0
  -13.2806   45.7604  -16.1662 C   0  0  0  0  0  0  0  0  0  0  0  0
  -13.0472   45.5126  -14.8152 C   0  0  0  0  0  0  0  0  0  0  0  0
  -13.3402   46.3569  -13.9360 O   0  0  0  0  0  0  0  0  0  0  0  0
  -12.4836   44.3123  -14.4597 C   0  0  0  0  0  0  0  0  0  0  0  0
  -12.1905   43.4391  -15.4781 C   0  0  0  0  0  0  0  0  0  0  0  0
  -11.5960   42.1704  -15.1204 N   0  0  0  0  0  0  0  0  0  0  0  0
  -11.0508   41.9039  -13.8282 C   0  0  0  0  0  0  0  0  0  0  0  0
  -10.8179   40.3879  -13.7695 C   0  0  0  0  0  0  0  0  0  0  0  0
   -9.8620   40.0787  -14.7140 O   0  0  0  0  0  0  0  0  0  0  0  0
  -10.2380   40.3852  -15.9999 C   0  0  0  0  0  0  0  0  0  0  0  0
  -11.5477   41.1170  -16.1135 C   0  0  0  0  0  0  0  0  0  0  0  0
  -12.4324   43.7305  -16.7070 O   0  0  0  0  0  0  0  0  0  0  0  0
  -13.9603   44.2664  -19.3482 C   0  0  0  0  0  0  0  0  0  0  0  0
  -14.9441   42.9284  -18.6554 S   0  0  0  0  0  0  0  0  0  0  0  0
  -23.1916   43.1249  -24.3484 C   0  0  0  0  0  0  0  0  0  0  0  0
  -24.2899   42.8095  -25.2768 C   0  0  1  0  0  0  0  0  0  0  0  0
  -24.7156   44.1022  -25.9846 C   0  0  0  0  0  0  0  0  0  0  0  0
  -24.0508   41.8784  -26.2377 O   0  0  0  0  0  0  0  0  0  0  0  0
  2  1  1  1
  2  3  1  0
  3  4  1  0
  4  5  1  0
  5  6  1  0
  6  7  2  0
  6  8  1  0
  8  9  1  0
  9 10  2  0
 10 11  1  0
 11 12  2  0
 12 13  1  0
 13 14  2  0
 13 15  1  0
 15 16  1  0
 16 17  2  0
 17 18  1  0
 18 19  2  0
 19 20  1  0
 20 21  1  0
 21 22  2  0
 22 23  1  0
 23 24  2  0
 23 25  1  0
 25 26  2  0
 26 27  1  0
 27 28  1  0
 28 29  1  0
 29 30  1  0
 30 31  1  0
 31 32  1  0
 26 33  1  0
 20 34  2  0
 34 35  1  0
  4 36  1  0
 36 37  1  0
 37 38  1  6
 37 39  1  0
 39  2  1  0
 14  9  1  0
 34 16  1  0
 35 12  1  0
 33 21  1  0
 32 27  1  0
M  END
$$$$
