
     RDKit          3D

 17 16  0  0  0  0  0  0  0  0999 V2000
  -11.2744   -5.1326  -34.1476 C   0  0  0  0  0  0  0  0  0  0  0  0
  -11.9737   -4.0228  -34.7519 N   0  0  0  0  0  0  0  0  0  0  0  0
  -12.0816   -4.0048  -36.1934 C   0  0  0  0  0  0  0  0  0  0  0  0
  -12.5256   -3.0003  -33.9397 C   0  0  0  0  0  0  0  0  0  0  0  0
  -12.4062   -3.0593  -32.6905 O   0  0  0  0  0  0  0  0  0  0  0  0
  -13.2090   -1.9054  -34.4388 O   0  0  0  0  0  0  0  0  0  0  0  0
  -13.7467   -0.9091  -33.6470 C   0  0  0  0  0  0  0  0  0  0  0  0
  -12.9570    0.1734  -33.3478 C   0  0  0  0  0  0  0  0  0  0  0  0
  -13.3990    1.2068  -32.5737 C   0  0  0  0  0  0  0  0  0  0  0  0
  -14.6718    1.1705  -32.0747 C   0  0  0  0  0  0  0  0  0  0  0  0
  -15.5042    0.0863  -32.3575 C   0  0  0  0  0  0  0  0  0  0  0  0
  -16.8096    0.0993  -31.8168 N   0  0  0  0  0  4  0  0  0  0  0  0
  -16.8238   -0.3508  -30.4264 C   0  0  0  0  0  0  0  0  0  0  0  0
  -17.7430   -0.7210  -32.5399 C   0  0  0  0  0  0  0  0  0  0  0  0
  -17.3465    1.4610  -31.7959 C   0  0  0  0  0  0  0  0  0  0  0  0
  -15.0218   -0.9452  -33.1469 C   0  0  0  0  0  0  0  0  0  0  0  0
  -14.5521   -1.2476  -33.0500 Br  0  0  0  0  0 15  0  0  0  0  0  0
  1  2  1  0
  2  3  1  0
  2  4  1  0
  4  5  2  0
  4  6  1  0
  6  7  1  0
  7  8  2  0
  8  9  1  0
  9 10  2  0
 10 11  1  0
 11 12  1  0
 12 13  1  0
 12 14  1  0
 12 15  1  0
 11 16  2  0
 16  7  1  0
M  CHG  2  12   1  17  -1
M  END
$$$$
