
     RDKit          3D

 22 22  0  0  0  0  0  0  0  0999 V2000
  -20.8819   37.7951  -22.5768 Cl  0  0  0  0  0  0  0  0  0  0  0  0
  -24.4526   42.1040  -23.7493 N   0  0  0  0  0  0  0  0  0  0  0  0
  -24.0658   40.9098  -23.4909 C   0  0  0  0  0  0  0  0  0  0  0  0
  -25.0238   39.8754  -23.4533 N   0  0  0  0  0  0  0  0  0  0  0  0
  -22.6692   40.6059  -23.2382 C   0  0  0  0  0  0  0  0  0  0  0  0
  -21.6426   41.3464  -23.8247 C   0  0  0  0  0  0  0  0  0  0  0  0
  -20.3165   41.0664  -23.5915 C   0  0  0  0  0  0  0  0  0  0  0  0
  -19.9331   40.0339  -22.7616 C   0  0  0  0  0  0  0  0  0  0  0  0
  -18.5614   39.7387  -22.5160 N   0  0  0  0  0  0  0  0  0  0  0  0
  -18.1614   38.5599  -22.6985 N   0  0  0  0  0  0  0  0  0  0  0  0
  -19.0475   37.5899  -23.1270 N   0  0  0  0  0  0  0  0  0  0  0  0
  -18.9257   36.2676  -22.6286 C   0  0  0  0  0  0  0  0  0  0  0  0
  -17.9492   35.9055  -21.7243 C   0  0  0  0  0  0  0  0  0  0  0  0
  -17.8617   34.6157  -21.2637 C   0  0  0  0  0  0  0  0  0  0  0  0
  -18.7192   33.6128  -21.6590 C   0  0  0  0  0  0  0  0  0  0  0  0
  -18.6202   32.2491  -21.1666 C   0  0  0  0  0  0  0  0  0  0  0  0
  -17.5002   31.7400  -20.8211 N   0  0  0  0  0  0  0  0  0  0  0  0
  -19.7878   31.4553  -21.0631 N   0  0  0  0  0  0  0  0  0  0  0  0
  -19.6951   33.9751  -22.5628 C   0  0  0  0  0  0  0  0  0  0  0  0
  -19.8024   35.2606  -23.0382 C   0  0  0  0  0  0  0  0  0  0  0  0
  -20.9411   39.2775  -22.1623 C   0  0  0  0  0  0  0  0  0  0  0  0
  -22.2602   39.5790  -22.4127 C   0  0  0  0  0  0  0  0  0  0  0  0
  2  3  2  0
  3  4  1  0
  3  5  1  0
  5  6  2  0
  6  7  1  0
  7  8  2  0
  8  9  1  0
  9 10  2  3
 10 11  1  0
 11 12  1  0
 12 13  2  0
 13 14  1  0
 14 15  2  0
 15 16  1  0
 16 17  2  0
 16 18  1  0
 15 19  1  0
 19 20  2  0
  8 21  1  0
 21 22  2  0
 22  5  1  0
 20 12  1  0
M  END
$$$$
