
     RDKit          3D

 18 19  0  0  0  0  0  0  0  0999 V2000
  -15.9500   17.8442  -33.2926 N   0  0  0  0  0  0  0  0  0  0  0  0
  -16.9878   16.8793  -33.1126 C   0  0  0  0  0  0  0  0  0  0  0  0
  -17.8850   16.8627  -33.9573 O   0  0  0  0  0  0  0  0  0  0  0  0
  -16.9404   15.9920  -31.9792 C   0  0  0  0  0  0  0  0  0  0  0  0
  -15.7221   15.3191  -31.7440 C   0  0  0  0  0  0  0  0  0  0  0  0
  -15.5441   14.4273  -30.7181 C   0  0  0  0  0  0  0  0  0  0  0  0
  -14.3151   13.7613  -30.4752 N   0  0  0  0  0  0  0  0  0  0  0  0
  -12.9847   13.5214  -29.9927 C   0  0  0  0  0  0  0  0  0  0  0  0
  -13.5927   12.4343  -30.7528 C   0  0  0  0  0  0  0  0  0  0  0  0
  -16.6311   14.2093  -29.9063 C   0  0  0  0  0  0  0  0  0  0  0  0
  -16.5304   13.2853  -28.8118 N   0  0  0  0  0  4  0  0  0  0  0  0
  -17.5342   12.6752  -28.4121 O   0  0  0  0  0  0  0  0  0  0  0  0
  -15.2864   13.1317  -28.2462 O   0  0  0  0  0  1  0  0  0  0  0  0
  -17.8264   14.8530  -30.1144 C   0  0  0  0  0  0  0  0  0  0  0  0
  -18.0141   15.7715  -31.1665 C   0  0  0  0  0  0  0  0  0  0  0  0
  -19.2963   16.3754  -31.2798 N   0  0  0  0  0  4  0  0  0  0  0  0
  -20.2987   15.6259  -30.9823 O   0  0  0  0  0  0  0  0  0  0  0  0
  -19.5441   17.6514  -31.6764 O   0  0  0  0  0  1  0  0  0  0  0  0
  1  2  1  0
  2  3  2  0
  2  4  1  0
  4  5  2  0
  5  6  1  0
  6  7  1  0
  7  8  1  0
  8  9  1  0
  6 10  2  0
 10 11  1  0
 11 12  2  0
 11 13  1  0
 10 14  1  0
 14 15  2  0
 15 16  1  0
 16 17  2  0
 16 18  1  0
 15  4  1  0
  9  7  1  0
M  CHG  4  11   1  13  -1  16   1  18  -1
M  END
$$$$
