
     RDKit          3D

 21 23  0  0  0  0  0  0  0  0999 V2000
  -21.3759   43.2464  -24.3966 C   0  0  0  0  0  0  0  0  0  0  0  0
  -19.9291   42.7972  -24.1456 C   0  0  0  0  0  0  0  0  0  0  0  0
  -19.2172   42.6629  -25.4555 C   0  0  0  0  0  0  0  0  0  0  0  0
  -19.3385   43.8128  -23.3581 O   0  0  0  0  0  0  0  0  0  0  0  0
  -18.4562   43.5081  -22.3354 C   0  0  0  0  0  0  0  0  0  0  0  0
  -17.9295   44.6033  -21.6404 C   0  0  0  0  0  0  0  0  0  0  0  0
  -17.0489   44.4021  -20.6129 C   0  0  0  0  0  0  0  0  0  0  0  0
  -16.6866   43.1355  -20.2687 C   0  0  0  0  0  0  0  0  0  0  0  0
  -15.7644   42.9224  -19.1930 C   0  0  0  0  0  0  0  0  0  0  0  0
  -15.0331   42.7382  -18.3152 N   0  0  0  0  0  0  0  0  0  0  0  0
  -17.2161   42.0568  -20.9661 C   0  0  0  0  0  0  0  0  0  0  0  0
  -18.1031   42.2203  -22.0035 C   0  0  0  0  0  0  0  0  0  0  0  0
  -18.6833   41.1086  -22.7629 C   0  0  1  0  0  0  0  0  0  0  0  0
  -18.9602   39.9458  -21.9262 N   0  0  0  0  0  0  0  0  0  0  0  0
  -20.1296   39.7696  -21.0888 C   0  0  0  0  0  0  0  0  0  0  0  0
  -20.1613   38.3409  -20.6658 C   0  0  0  0  0  0  0  0  0  0  0  0
  -18.9482   37.6570  -21.1990 C   0  0  0  0  0  0  0  0  0  0  0  0
  -18.1593   38.7806  -21.7672 C   0  0  0  0  0  0  0  0  0  0  0  0
  -16.9393   38.6649  -22.0544 O   0  0  0  0  0  0  0  0  0  0  0  0
  -20.0020   41.5294  -23.3647 C   0  0  2  0  0  0  0  0  0  0  0  0
  -20.4064   40.5121  -24.2227 O   0  0  0  0  0  0  0  0  0  0  0  0
  1  2  1  0
  2  3  1  0
  2  4  1  0
  4  5  1  0
  5  6  2  0
  6  7  1  0
  7  8  2  0
  8  9  1  0
  9 10  3  0
  8 11  1  0
 11 12  2  0
 12 13  1  0
 13 14  1  1
 14 15  1  0
 15 16  1  0
 16 17  1  0
 17 18  1  0
 18 19  2  0
 13 20  1  0
 20 21  1  6
 20  2  1  0
 12  5  1  0
 18 14  1  0
M  END
$$$$
