
     RDKit          3D

 23 24  0  0  0  0  0  0  0  0999 V2000
  -17.8910   34.2163  -24.8314 C   0  0  0  0  0  0  0  0  0  0  0  0
  -18.1162   35.1130  -23.6573 C   0  0  0  0  0  0  0  0  0  0  0  0
  -18.3213   34.5629  -22.4084 C   0  0  0  0  0  0  0  0  0  0  0  0
  -18.5252   35.4251  -21.3515 C   0  0  0  0  0  0  0  0  0  0  0  0
  -18.5237   36.8007  -21.5406 C   0  0  0  0  0  0  0  0  0  0  0  0
  -18.3185   37.3496  -22.7896 C   0  0  0  0  0  0  0  0  0  0  0  0
  -18.3188   38.7779  -22.9752 N   0  0  0  0  0  0  0  0  0  0  0  0
  -19.1019   39.5947  -22.1789 N   0  0  0  0  0  0  0  0  0  0  0  0
  -19.0296   40.9234  -22.1907 C   0  0  0  0  0  0  0  0  0  0  0  0
  -19.7290   41.6081  -23.2017 C   0  0  0  0  0  0  0  0  0  0  0  0
  -20.2786   42.7480  -22.7267 O   0  0  0  0  0  0  0  0  0  0  0  0
  -19.9906   41.3837  -24.5937 C   0  0  0  0  0  0  0  0  0  0  0  0
  -19.7500   40.4926  -25.5577 C   0  0  0  0  0  0  0  0  0  0  0  0
  -20.1942   40.6540  -26.8116 C   0  0  0  0  0  0  0  0  0  0  0  0
  -20.9189   41.7649  -27.1251 C   0  0  0  0  0  0  0  0  0  0  0  0
  -20.9872   42.6472  -25.5647 S   0  0  0  0  0  0  0  0  0  0  0  0
  -18.2191   41.4467  -21.1284 C   0  0  0  0  0  0  0  0  0  0  0  0
  -17.2469   42.1961  -21.2617 O   0  0  0  0  0  0  0  0  0  0  0  0
  -18.5167   41.0954  -19.6823 C   0  0  0  0  0  0  0  0  0  0  0  0
  -19.8593   41.0099  -19.4562 F   0  0  0  0  0  0  0  0  0  0  0  0
  -17.9109   39.8610  -19.4874 F   0  0  0  0  0  0  0  0  0  0  0  0
  -17.9080   41.9881  -18.8447 F   0  0  0  0  0  0  0  0  0  0  0  0
  -18.1148   36.4864  -23.8450 C   0  0  0  0  0  0  0  0  0  0  0  0
  1  2  1  0
  2  3  2  0
  3  4  1  0
  4  5  2  0
  5  6  1  0
  6  7  1  0
  7  8  1  0
  8  9  2  0
  9 10  1  0
 10 11  2  0
 10 12  1  0
 12 13  2  0
 13 14  1  0
 14 15  2  0
 15 16  1  0
  9 17  1  0
 17 18  2  0
 17 19  1  0
 19 20  1  0
 19 21  1  0
 19 22  1  0
  6 23  2  0
 23  2  1  0
 16 12  1  0
M  END
$$$$
