
     RDKit          3D

 42 46  0  0  0  0  0  0  0  0999 V2000
  -26.5307   17.4638  -22.8031 C   0  0  0  0  0  0  0  0  0  0  0  0
  -26.4776   16.6354  -21.5299 C   0  0  0  0  0  0  0  0  0  0  0  0
  -26.1521   15.2584  -21.7645 N   0  0  0  0  0  0  0  0  0  0  0  0
  -24.7207   14.9465  -21.9358 C   0  0  0  0  0  0  0  0  0  0  0  0
  -24.3648   13.6422  -21.3136 C   0  0  0  0  0  0  0  0  0  0  0  0
  -27.0902   14.2259  -21.8364 C   0  0  0  0  0  0  0  0  0  0  0  0
  -26.5795   13.0393  -21.9786 O   0  0  0  0  0  0  0  0  0  0  0  0
  -28.5470   14.2537  -21.7826 C   0  0  0  0  0  0  0  0  0  0  0  0
  -29.1832   14.7683  -20.5726 C   0  0  0  0  0  0  0  0  0  0  0  0
  -29.9057   15.9769  -20.5994 C   0  0  0  0  0  0  0  0  0  0  0  0
  -30.5184   16.5009  -19.4937 C   0  0  0  0  0  0  0  0  0  0  0  0
  -30.4580   15.8576  -18.2709 C   0  0  0  0  0  0  0  0  0  0  0  0
  -29.7516   14.6750  -18.2416 C   0  0  0  0  0  0  0  0  0  0  0  0
  -29.1358   14.1476  -19.3497 C   0  0  0  0  0  0  0  0  0  0  0  0
  -29.0582   12.9797  -22.2179 N   0  0  0  0  0  0  0  0  0  0  0  0
  -29.8271   12.9687  -23.4069 C   0  0  0  0  0  0  0  0  0  0  0  0
  -30.8341   11.8088  -23.2136 C   0  0  0  0  0  0  0  0  0  0  0  0
  -29.9485   10.6310  -23.1971 N   0  0  0  0  0  0  0  0  0  0  0  0
  -30.3193    9.5751  -24.0308 C   0  0  0  0  0  0  0  0  0  0  0  0
  -31.5498    8.9811  -23.9631 C   0  0  0  0  0  0  0  0  0  0  0  0
  -31.9192    7.9048  -24.7699 C   0  0  0  0  0  0  0  0  0  0  0  0
  -31.0288    7.4169  -25.6636 C   0  0  0  0  0  0  0  0  0  0  0  0
  -31.2650    6.3112  -26.5209 N   0  0  0  0  0  0  0  0  0  0  0  0
  -31.6154    6.3327  -27.8746 C   0  0  0  0  0  0  0  0  0  0  0  0
  -31.1401    7.1878  -28.6290 O   0  0  0  0  0  0  0  0  0  0  0  0
  -32.5490    5.3680  -28.4728 C   0  0  0  0  0  0  0  0  0  0  0  0
  -33.7073    5.8233  -29.0536 C   0  0  0  0  0  0  0  0  0  0  0  0
  -34.6300    4.9708  -29.6370 C   0  0  0  0  0  0  0  0  0  0  0  0
  -34.3777    3.6117  -29.6355 C   0  0  0  0  0  0  0  0  0  0  0  0
  -33.2293    3.1283  -29.0626 C   0  0  0  0  0  0  0  0  0  0  0  0
  -32.3159    4.0115  -28.4814 C   0  0  0  0  0  0  0  0  0  0  0  0
  -31.1000    3.5192  -27.8673 C   0  0  0  0  0  0  0  0  0  0  0  0
  -30.0533    4.3482  -27.5111 C   0  0  0  0  0  0  0  0  0  0  0  0
  -28.9071    3.8544  -26.9334 C   0  0  0  0  0  0  0  0  0  0  0  0
  -28.8115    2.4937  -26.7083 C   0  0  0  0  0  0  0  0  0  0  0  0
  -29.8082    1.6662  -27.0426 N   0  0  0  0  0  0  0  0  0  0  0  0
  -30.9222    2.1598  -27.6061 C   0  0  0  0  0  0  0  0  0  0  0  0
  -29.7603    8.0188  -25.7450 C   0  0  0  0  0  0  0  0  0  0  0  0
  -29.4173    9.0751  -24.9435 C   0  0  0  0  0  0  0  0  0  0  0  0
  -28.1752    9.6386  -25.0472 F   0  0  0  0  0  0  0  0  0  0  0  0
  -28.7802   10.5715  -22.3866 C   0  0  0  0  0  0  0  0  0  0  0  0
  -28.1198   11.9134  -22.1657 C   0  0  0  0  0  0  0  0  0  0  0  0
  1  2  1  0
  2  3  1  0
  3  4  1  0
  4  5  1  0
  3  6  1  0
  6  7  2  0
  6  8  1  0
  8  9  1  0
  9 10  2  0
 10 11  1  0
 11 12  2  0
 12 13  1  0
 13 14  2  0
  8 15  1  0
 15 16  1  0
 16 17  1  0
 17 18  1  0
 18 19  1  0
 19 20  2  0
 20 21  1  0
 21 22  2  0
 22 23  1  0
 23 24  1  0
 24 25  2  0
 24 26  1  0
 26 27  2  0
 27 28  1  0
 28 29  2  0
 29 30  1  0
 30 31  2  0
 31 32  1  0
 32 33  2  0
 33 34  1  0
 34 35  2  0
 35 36  1  0
 36 37  2  0
 22 38  1  0
 38 39  2  0
 39 40  1  0
 18 41  1  0
 41 42  1  0
 14  9  1  0
 42 15  1  0
 39 19  1  0
 31 26  1  0
 37 32  1  0
M  END
$$$$
