
     RDKit          3D

 37 41  0  0  0  0  0  0  0  0999 V2000
  -15.5912   44.7667  -18.9172 Cl  0  0  0  0  0  0  0  0  0  0  0  0
  -18.8940   45.3155  -23.0825 O   0  0  0  0  0  0  0  0  0  0  0  0
  -18.6712   45.9988  -22.0378 C   0  0  0  0  0  0  0  0  0  0  0  0
  -19.7045   46.9836  -21.6725 C   0  0  0  0  0  0  0  0  0  0  0  0
  -20.6846   46.7167  -20.7429 C   0  0  0  0  0  0  0  0  0  0  0  0
  -20.7459   45.4991  -20.1061 C   0  0  0  0  0  0  0  0  0  0  0  0
  -21.7210   45.2137  -19.1749 C   0  0  0  0  0  0  0  0  0  0  0  0
  -22.6785   46.1669  -18.8542 C   0  0  0  0  0  0  0  0  0  0  0  0
  -22.6115   47.3763  -19.4912 C   0  0  0  0  0  0  0  0  0  0  0  0
  -21.6377   47.6759  -20.4286 C   0  0  0  0  0  0  0  0  0  0  0  0
  -21.5702   48.8909  -21.0721 C   0  0  0  0  0  0  0  0  0  0  0  0
  -20.5817   49.1668  -22.0143 C   0  0  0  0  0  0  0  0  0  0  0  0
  -20.5221   50.3995  -22.6707 C   0  0  0  0  0  0  0  0  0  0  0  0
  -19.5438   50.6648  -23.6077 C   0  0  0  0  0  0  0  0  0  0  0  0
  -18.6100   49.7274  -23.9149 C   0  0  0  0  0  0  0  0  0  0  0  0
  -18.6695   48.5035  -23.2636 C   0  0  0  0  0  0  0  0  0  0  0  0
  -19.6355   48.2122  -22.3247 C   0  0  0  0  0  0  0  0  0  0  0  0
  -17.4932   45.8027  -21.2926 N   0  0  0  0  0  0  0  0  0  0  0  0
  -17.2574   46.5795  -20.1193 C   0  0  0  0  0  0  0  0  0  0  0  0
  -16.1128   46.0787  -19.2795 C   0  0  0  0  0  0  0  0  0  0  0  0
  -15.8078   44.6358  -19.3732 C   0  0  0  0  0  0  0  0  0  0  0  0
  -14.4505   44.2959  -19.1386 N   0  0  0  0  0  0  0  0  0  0  0  0
  -13.4238   44.8542  -19.9240 C   0  0  0  0  0  0  0  0  0  0  0  0
  -12.3493   45.2331  -18.8906 C   0  0  0  0  0  0  0  0  0  0  0  0
  -11.8166   43.8912  -18.3778 C   0  0  0  0  0  0  0  0  0  0  0  0
  -12.8520   42.8908  -18.0500 C   0  0  1  0  0  0  0  0  0  0  0  0
  -13.0863   42.8604  -16.5843 C   0  0  0  0  0  0  0  0  0  0  0  0
  -14.2254   43.2515  -16.1877 O   0  0  0  0  0  0  0  0  0  0  0  0
  -12.1119   42.4241  -15.6669 N   0  0  0  0  0  0  0  0  0  0  0  0
  -12.4306   42.4543  -14.2500 C   0  0  0  0  0  0  0  0  0  0  0  0
  -11.7954   41.2941  -13.5171 C   0  0  0  0  0  0  0  0  0  0  0  0
  -10.5250   41.0055  -14.0113 O   0  0  0  0  0  0  0  0  0  0  0  0
  -10.6012   40.6327  -15.3495 C   0  0  0  0  0  0  0  0  0  0  0  0
  -10.8324   41.9417  -16.1322 C   0  0  0  0  0  0  0  0  0  0  0  0
  -14.1468   42.9703  -18.7948 C   0  0  0  0  0  0  0  0  0  0  0  0
  -16.3366   43.8986  -20.5676 C   0  0  0  0  0  0  0  0  0  0  0  0
  -16.5554   44.7923  -21.7635 C   0  0  0  0  0  0  0  0  0  0  0  0
  2  3  2  0
  3  4  1  0
  4  5  1  0
  5  6  2  0
  6  7  1  0
  7  8  2  0
  8  9  1  0
  9 10  2  0
 10 11  1  0
 11 12  2  0
 12 13  1  0
 13 14  2  0
 14 15  1  0
 15 16  2  0
 16 17  1  0
  3 18  1  0
 18 19  1  0
 19 20  1  0
 20 21  1  0
 21 22  1  0
 22 23  1  0
 23 24  1  0
 24 25  1  0
 25 26  1  0
 26 27  1  1
 27 28  2  0
 27 29  1  0
 29 30  1  0
 30 31  1  0
 31 32  1  0
 32 33  1  0
 33 34  1  0
 26 35  1  0
 21 36  1  0
 36 37  1  0
 17  4  2  0
 37 18  1  0
 10  5  1  0
 17 12  1  0
 35 22  1  0
 34 29  1  0
M  END
$$$$
