
     RDKit          3D

 29 30  0  0  0  0  0  0  0  0999 V2000
  -18.8531   32.7427  -21.2636 C   0  0  0  0  0  0  0  0  0  0  0  0
  -18.1502   32.5008  -22.5358 C   0  0  0  0  0  0  0  0  0  0  0  0
  -18.2137   33.5476  -23.5730 C   0  0  0  0  0  0  0  0  0  0  0  0
  -17.6608   34.8792  -23.2553 C   0  0  0  0  0  0  0  0  0  0  0  0
  -18.3110   35.6818  -22.1865 C   0  0  0  0  0  0  0  0  0  0  0  0
  -19.7500   36.0363  -22.5122 C   0  0  2  0  0  0  0  0  0  0  0  0
  -19.8252   36.7984  -23.6828 O   0  0  0  0  0  0  0  0  0  0  0  0
  -20.4596   36.7058  -21.3913 C   0  0  0  0  0  0  0  0  0  0  0  0
  -19.8777   37.9871  -20.9152 C   0  0  0  0  0  0  0  0  0  0  0  0
  -19.7852   39.0881  -21.9099 C   0  0  2  0  0  0  0  0  0  0  0  0
  -19.1621   40.2869  -21.1756 C   0  0  1  0  0  0  0  0  0  0  0  0
  -18.1494   40.9800  -22.0285 C   0  0  0  0  0  0  0  0  0  0  0  0
  -17.8532   42.2957  -21.4063 C   0  0  0  0  0  0  0  0  0  0  0  0
  -16.5615   42.7315  -21.2043 C   0  0  0  0  0  0  0  0  0  0  0  0
  -16.3451   43.9473  -20.6289 C   0  0  0  0  0  0  0  0  0  0  0  0
  -17.4244   44.7336  -20.2527 C   0  0  0  0  0  0  0  0  0  0  0  0
  -18.7262   44.3326  -20.4384 C   0  0  0  0  0  0  0  0  0  0  0  0
  -19.8006   45.1138  -20.0639 O   0  0  0  0  0  0  0  0  0  0  0  0
  -19.7624   46.3697  -19.4749 C   0  0  0  0  0  0  0  0  0  0  0  0
  -19.1131   47.4216  -20.2595 C   0  0  0  0  0  0  0  0  0  0  0  0
  -19.0428   48.5713  -19.7349 O   0  0  0  0  0  0  0  0  0  0  0  0
  -18.5706   47.2813  -21.5170 O   0  0  0  0  0  1  0  0  0  0  0  0
  -18.9219   43.0983  -21.0225 C   0  0  0  0  0  0  0  0  0  0  0  0
  -20.2772   42.5449  -21.2802 C   0  0  0  0  0  0  0  0  0  0  0  0
  -20.3008   41.1380  -20.7285 C   0  0  1  0  0  0  0  0  0  0  0  0
  -21.5823   40.4612  -21.1807 C   0  0  0  0  0  0  0  0  0  0  0  0
  -21.0895   39.6448  -22.3643 C   0  0  1  0  0  0  0  0  0  0  0  0
  -20.9140   40.4225  -23.4972 O   0  0  0  0  0  0  0  0  0  0  0  0
  -19.0941   39.3752  -21.5471 Na  0  0  0  0  0 15  0  0  0  0  0  0
  1  2  1  0
  2  3  1  0
  3  4  1  0
  4  5  1  0
  5  6  1  0
  6  7  1  6
  6  8  1  0
  8  9  1  0
 10  9  1  1
 10 11  1  0
 11 12  1  6
 12 13  1  0
 13 14  2  0
 14 15  1  0
 15 16  2  0
 16 17  1  0
 17 18  1  0
 18 19  1  0
 19 20  1  0
 20 21  2  0
 20 22  1  0
 17 23  2  0
 23 24  1  0
 25 24  1  6
 25 26  1  0
 26 27  1  0
 27 28  1  6
 27 10  1  0
 25 11  1  0
 23 13  1  0
M  CHG  2  22  -1  29   1
M  END
$$$$
