
     RDKit          3D

 27 30  0  0  0  0  0  0  0  0999 V2000
  -21.1639   47.0670  -23.9187 C   0  0  0  0  0  0  0  0  0  0  0  0
  -20.2613   47.1624  -22.7997 N   0  0  0  0  0  0  0  0  0  0  0  0
  -18.8820   47.0195  -23.1405 C   0  0  0  0  0  0  0  0  0  0  0  0
  -18.1582   46.3445  -21.9692 C   0  0  0  0  0  0  0  0  0  0  0  0
  -18.8009   45.0120  -21.8931 N   0  0  0  0  0  0  0  0  0  0  0  0
  -18.1103   43.8480  -22.1797 C   0  0  0  0  0  0  0  0  0  0  0  0
  -17.1054   43.9253  -22.9844 O   0  0  0  0  0  0  0  0  0  0  0  0
  -18.4573   42.5587  -21.6282 C   0  0  0  0  0  0  0  0  0  0  0  0
  -18.4726   42.0857  -20.3191 C   0  0  0  0  0  0  0  0  0  0  0  0
  -18.8458   40.7935  -20.1471 C   0  0  0  0  0  0  0  0  0  0  0  0
  -19.1711   40.0440  -21.1839 C   0  0  0  0  0  0  0  0  0  0  0  0
  -19.5831   38.6395  -21.3045 C   0  0  0  0  0  0  0  0  0  0  0  0
  -20.8747   38.2717  -21.0370 C   0  0  0  0  0  0  0  0  0  0  0  0
  -21.2436   36.9456  -21.1323 C   0  0  0  0  0  0  0  0  0  0  0  0
  -20.3477   35.9712  -21.4909 C   0  0  0  0  0  0  0  0  0  0  0  0
  -20.6694   34.6416  -21.5898 C   0  0  0  0  0  0  0  0  0  0  0  0
  -22.0190   34.1868  -21.3197 C   0  0  0  0  0  0  0  0  0  0  0  0
  -22.7091   34.7542  -20.4035 O   0  0  0  0  0  0  0  0  0  0  0  0
  -19.7334   33.6642  -21.9500 C   0  0  0  0  0  0  0  0  0  0  0  0
  -20.0478   32.3209  -22.0529 O   0  0  0  0  0  0  0  0  0  0  0  0
  -18.4462   34.0620  -22.2121 C   0  0  0  0  0  0  0  0  0  0  0  0
  -18.1083   35.3957  -22.1169 C   0  0  0  0  0  0  0  0  0  0  0  0
  -19.0287   36.3524  -21.7634 C   0  0  0  0  0  0  0  0  0  0  0  0
  -18.6733   37.6682  -21.6661 C   0  0  0  0  0  0  0  0  0  0  0  0
  -18.9771   41.1395  -22.5930 S   0  0  0  0  0  0  0  0  0  0  0  0
  -20.1885   45.0631  -21.4888 C   0  0  0  0  0  0  0  0  0  0  0  0
  -20.6956   46.4962  -21.6188 C   0  0  0  0  0  0  0  0  0  0  0  0
  1  2  1  0
  2  3  1  0
  3  4  1  0
  4  5  1  0
  5  6  1  0
  6  7  2  0
  6  8  1  0
  8  9  2  0
  9 10  1  0
 10 11  2  0
 11 12  1  0
 12 13  2  0
 13 14  1  0
 14 15  2  0
 15 16  1  0
 16 17  1  0
 17 18  2  0
 16 19  2  0
 19 20  1  0
 19 21  1  0
 21 22  2  0
 22 23  1  0
 23 24  2  0
 11 25  1  0
  5 26  1  0
 26 27  1  0
 27  2  1  0
 25  8  1  0
 24 12  1  0
 23 15  1  0
M  END
$$$$
