
     RDKit          3D

 11 10  0  0  0  0  0  0  0  0999 V2000
  -19.7846   34.5664  -23.3339 N   0  0  0  0  0  0  0  0  0  0  0  0
  -19.2659   34.4554  -22.0063 C   0  0  1  0  0  0  0  0  0  0  0  0
  -18.7835   35.7709  -21.4437 C   0  0  0  0  0  0  0  0  0  0  0  0
  -17.6961   36.2790  -22.1469 O   0  0  0  0  0  0  0  0  0  0  0  0
  -17.4977   37.8867  -21.6555 P   0  0  0  0  0  5  0  0  0  0  0  0
  -16.9749   37.9646  -20.2406 O   0  0  0  0  0  0  0  0  0  0  0  0
  -16.3681   38.6340  -22.6670 O   0  0  0  0  0  0  0  0  0  0  0  0
  -18.9319   38.7611  -21.7556 O   0  0  0  0  0  0  0  0  0  0  0  0
  -20.2027   33.8402  -21.0546 C   0  0  0  0  0  0  0  0  0  0  0  0
  -21.3476   34.3509  -20.9449 O   0  0  0  0  0  0  0  0  0  0  0  0
  -19.9096   32.7366  -20.2710 O   0  0  0  0  0  0  0  0  0  0  0  0
  2  1  1  6
  2  3  1  0
  3  4  1  0
  4  5  1  0
  5  6  2  0
  5  7  1  0
  5  8  1  0
  2  9  1  0
  9 10  2  0
  9 11  1  0
M  END
$$$$
